*INCLUDE, INPUT=ln2out.inp

*MATERIAL,NAME=Steel
*ELASTIC
2.9000E+07,0.3
*DENSITY
7.3500E-04

*BEAM SECTION,MATERIAL=Steel,ELSET=ln1,OFFSET1=0,SECTION=RECT
3.,1.


*BOUNDARY
1,1,6,0



*STEP
*FREQUENCY
3
*NODE FILE,OUTPUT=3D
U
*EL FILE
S
*END STEP

