*INCLUDE, INPUT=surq2out.inp

*MATERIAL,NAME=Steel
*ELASTIC
2.9000E+07,0.3
*DENSITY
7.3500E-04

*SHELL SECTION,MATERIAL=Steel,ELSET=sur6
1



*BOUNDARY
ln4,1,6,0



*STEP
*FREQUENCY
3
*NODE FILE,OUTPUT=3D
U
*EL FILE
S
*END STEP

