*INCLUDE, INPUT=vol2out.inp

*MATERIAL,NAME=Steel
*ELASTIC
2.9000E+07,0.3
*DENSITY
7.3500E-04

*SOLID SECTION,MATERIAL=Steel,ELSET=vol1




*BOUNDARY
sur19,1,3,0



*STEP
*FREQUENCY
3
*NODE FILE
U
*EL FILE
S
*END STEP

