**Wire Bending
**Large displacements + 
**Plasticity + 
**Contact 
**(smoothed bi-linear node-to-surface) + 
** Rigid body with prescribed rotation 
**http://github.com/mkraska/CalculiX-Examples/tree/master/Drahtbiegen/Biegung
**Created by Martin Kraska, 
**Brandenburg University of Applied Sciences
**<img src="bend.png">


*NODE, NSET=Nall
       1,5.000000000000e+00,0.000000000000e+00,-6.000000000000e+00
       2,5.000000000000e+00,1.000000000000e+00,-6.000000000000e+00
       3,1.600000000000e+01,1.000000000000e+00,0.000000000000e+00
       4,1.600000000000e+01,5.000000000000e-01,0.000000000000e+00
       5,1.600000000000e+01,4.024214024045e-01,4.026110337543e-01
       6,1.600000000000e+01,7.071067811865e-01,7.071067811865e-01
       7,1.560000000000e+01,1.000000000000e+00,0.000000000000e+00
       8,1.560000000000e+01,5.000000000000e-01,0.000000000000e+00
       9,1.560000000000e+01,4.023798443843e-01,4.024195121686e-01
      10,1.560000000000e+01,7.071067811865e-01,7.071067811865e-01
      11,1.600000000000e+01,0.000000000000e+00,5.000000000000e-01
      12,1.600000000000e+01,0.000000000000e+00,1.000000000000e+00
      13,1.560000000000e+01,0.000000000000e+00,5.000000000000e-01
      14,1.560000000000e+01,0.000000000000e+00,1.000000000000e+00
      15,1.600000000000e+01,0.000000000000e+00,0.000000000000e+00
      16,1.560000000000e+01,0.000000000000e+00,0.000000000000e+00
      17,1.520000000000e+01,1.000000000000e+00,0.000000000000e+00
      18,1.520000000000e+01,5.000000000000e-01,0.000000000000e+00
      19,1.520000000000e+01,4.023711692808e-01,4.023795415329e-01
      20,1.520000000000e+01,7.071067811865e-01,7.071067811865e-01
** ... 841 like lines cut
*ELEMENT, TYPE=C3D8I, ELSET=Eall
     1,     3,     4,     5,     6,     7,     8,     9,    10
     2,     6,     5,    11,    12,    10,     9,    13,    14
     3,     4,    15,    11,     5,     8,    16,    13,     9
     4,     7,     8,     9,    10,    17,    18,    19,    20
     5,    10,     9,    13,    14,    20,    19,    21,    22
     6,     8,    16,    13,     9,    18,    23,    21,    19
     7,    17,    18,    19,    20,    24,    25,    26,    27
     8,    20,    19,    21,    22,    27,    26,    28,    29
     9,    18,    23,    21,    19,    25,    30,    28,    26
    10,    24,    25,    26,    27,    31,    32,    33,    34
    11,    27,    26,    28,    29,    34,    33,    35,    36
    12,    25,    30,    28,    26,    32,    37,    35,    33
    13,    31,    32,    33,    34,    38,    39,    40,    41
    14,    34,    33,    35,    36,    41,    40,    42,    43
    15,    32,    37,    35,    33,    39,    44,    42,    40
    16,    38,    39,    40,    41,    45,    46,    47,    48
    17,    41,    40,    42,    43,    48,    47,    49,    50
    18,    39,    44,    42,    40,    46,    51,    49,    47
    19,    45,    46,    47,    48,    52,    53,    54,    55
    20,    48,    47,    49,    50,    55,    54,    56,    57
** ... 320 like lines cut
** Names based on draht
*NSET,NSET=Ndraht 
3, 
4, 
5, 
6, 
7, 
8, 
9, 
10, 
11, 
12, 
13, 
14, 
15, 
16, 
17, 
18, 
19, 
20, 
21, 
22, 
** ... 431 like lines cut
*ELSET,ELSET=Edraht 
1, 
2, 
3, 
4, 
5, 
6, 
7, 
8, 
9, 
10, 
11, 
12, 
13, 
14, 
15, 
16, 
17, 
18, 
19, 
20, 
** ... 220 like lines cut
** Names based on rfix
*NSET,NSET=Nrfix 
454, 
455, 
456, 
457, 
458, 
459, 
460, 
461, 
462, 
463, 
464, 
465, 
466, 
467, 
468, 
469, 
470, 
471, 
472, 
473, 
** ... 144 like lines cut
*ELSET,ELSET=Erfix 
241, 
242, 
243, 
244, 
245, 
246, 
247, 
248, 
249, 
250, 
251, 
252, 
253, 
254, 
255, 
256, 
257, 
258, 
259, 
260, 
** ... 20 like lines cut
** Names based on rmov
*NSET,NSET=Nrmov 
618, 
619, 
620, 
621, 
622, 
623, 
624, 
625, 
626, 
627, 
628, 
629, 
630, 
631, 
632, 
633, 
634, 
635, 
636, 
637, 
** ... 224 like lines cut
*ELSET,ELSET=Ermov 
281, 
282, 
283, 
284, 
285, 
286, 
287, 
288, 
289, 
290, 
291, 
292, 
293, 
294, 
295, 
296, 
297, 
298, 
299, 
300, 
** ... 40 like lines cut
** Names based on ref
*NSET,NSET=Nref 
1, 
** Names based on rot
*NSET,NSET=Nrot 
2, 
** surface definitions
** Surfaces based on fdep
*SURFACE, NAME=Sfdep
122, S6
125, S6
128, S6
131, S6
134, S6
137, S6
140, S6
143, S6
146, S6
149, S6
152, S6
155, S6
158, S6
161, S6
164, S6
167, S6
170, S6
173, S6
176, S6
179, S6
** ... 60 like lines cut
** Surfaces based on find
*SURFACE, NAME=Sfind
241, S6
242, S6
243, S6
244, S6
245, S6
246, S6
247, S6
248, S6
249, S6
250, S6
251, S6
252, S6
253, S6
254, S6
255, S6
256, S6
257, S6
258, S6
259, S6
260, S6
** ... 20 like lines cut
** Surfaces based on mdep
*SURFACE, NAME=Smdep
1, S6
2, S6
4, S6
5, S6
7, S6
8, S6
10, S6
11, S6
13, S6
14, S6
16, S6
17, S6
19, S6
20, S6
22, S6
23, S6
25, S6
26, S6
28, S6
29, S6
** ... 60 like lines cut
** Surfaces based on mind
*SURFACE, NAME=Smind
281, S6
282, S6
283, S6
284, S6
285, S6
286, S6
287, S6
288, S6
289, S6
290, S6
291, S6
292, S6
293, S6
294, S6
295, S6
296, S6
297, S6
298, S6
299, S6
300, S6
** ... 40 like lines cut
** rigid body
*rigid body, nset=Nrmov, ref node = 1 , rot node = 2
*boundary
Nref, 1,3
Nrot, 1,3
** BOUNDARY based on symy
11, 2, , 
12, 2, , 
13, 2, , 
14, 2, , 
15, 2, , 
16, 2, , 
21, 2, , 
22, 2, , 
23, 2, , 
28, 2, , 
29, 2, , 
30, 2, , 
35, 2, , 
36, 2, , 
37, 2, , 
42, 2, , 
43, 2, , 
44, 2, , 
49, 2, , 
50, 2, , 
** ... 185 like lines cut
** BOUNDARY based on rfix
454, 1, , 
455, 1, , 
456, 1, , 
457, 1, , 
458, 1, , 
459, 1, , 
460, 1, , 
461, 1, , 
462, 1, , 
463, 1, , 
464, 1, , 
465, 1, , 
466, 1, , 
467, 1, , 
468, 1, , 
469, 1, , 
470, 1, , 
471, 1, , 
472, 1, , 
473, 1, , 
** ... 472 like lines cut
** BOUNDARY based on wfix
283, 1, , 
284, 1, , 
285, 1, , 
286, 1, , 
287, 1, , 
288, 1, , 
289, 1, , 
450, 1, , 
451, 1, , 
452, 1, , 
453, 1, , 
283, 2, , 
284, 2, , 
285, 2, , 
286, 2, , 
287, 2, , 
288, 2, , 
289, 2, , 
450, 2, , 
451, 2, , 
** ... 13 like lines cut
** material definition
*material, name=draht
*elastic
210000,0.3
*plastic
200,0
5000,1
*material, name=tool
*elastic
210000,0.3
** material assignment to bodies
*solid section, elset=Edraht, material=draht
*solid section, elset=Erfix, material=tool
*solid section, elset=Ermov, material=tool
** contact definitions
*surface interaction, name=tool
***surface behavior, pressure-overclosure=linear
**1e6
**surface behavior, pressure-overclosure=exponential
**0.02,100
*surface behavior, pressure-overclosure=linear
10000,0.1,0.01
***friction
**0.1,1e7
*contact pair, interaction=tool, type=node to surface
Smdep,Smind
Sfdep,Sfind
*step,nlgeom, inc=200
*controls, parameters=field
0.005,1,0.1,0.1
*static
0.01,1,0.00000000000001,0.1
*boundary
Nrot,2,2,1.57
*node file, frequency=10
U
*el file
S,PE
*contact file
CDIS
*node print, nset=Nrot, frequency=1
RF
*el print, totals=only, elset=Edraht
ELSE
*end step
