**Honeycomb Sandwich
**Non-linear static analysis
**Plasticity
**Penalty contact
**Symmetry reduction
**Shell elements
**http://github.com/mkraska/CalculiX-Examples/tree/master/NonLinear/Honeycomb
**Created by Martin Kraska, 
**Brandenburg University of Applied Sciences
**<img src="hc.png">

*NODE, NSET=Nall
       1,7.105427357601e-15,0.000000000000e+00,-8.881784197001e-16
       2,7.105427357601e-15,1.312500000000e+00,-8.881784197001e-16
       3,2.589276566122e+00,1.312500000000e+00,-8.881784197001e-16
       4,2.952368754830e+00,0.000000000000e+00,-8.881784197001e-16
       5,7.105427357601e-15,2.625000000000e+00,-8.881784197001e-16
       6,2.226184377415e+00,2.625000000000e+00,-8.881784197001e-16
       7,7.105427357601e-15,3.937500000000e+00,-8.881784197001e-16
       8,1.863092188707e+00,3.937500000000e+00,-8.881784197001e-16
       9,7.105427357601e-15,5.250000000000e+00,-8.881784197001e-16
      10,1.500000000000e+00,5.250000000000e+00,-8.881784197001e-16
      11,5.178553132245e+00,1.312500000000e+00,-8.881784197001e-16
      12,5.904737509660e+00,0.000000000000e+00,-8.881784197001e-16
      13,4.452368754830e+00,2.625000000000e+00,-8.881784197001e-16
      14,3.726184377415e+00,3.937500000000e+00,-8.881784197001e-16
      15,3.000000000000e+00,5.250000000000e+00,-8.881784197001e-16
      16,7.105427357601e-15,0.000000000000e+00,1.000000000000e+01
      17,2.952368754830e+00,0.000000000000e+00,1.000000000000e+01
      18,2.589276566122e+00,1.312500000000e+00,1.000000000000e+01
      19,7.105427357601e-15,1.312500000000e+00,1.000000000000e+01
      20,2.226184377415e+00,2.625000000000e+00,1.000000000000e+01
** ... 5232 like lines cut
*ELEMENT, TYPE=S4, ELSET=Eall
     2,      1,      2,      3,      4
     3,      2,      5,      6,      3
     4,      5,      7,      8,      6
     5,      7,      9,     10,      8
     6,      4,      3,     11,     12
     7,      3,      6,     13,     11
     8,      6,      8,     14,     13
     9,      8,     10,     15,     14
    10,     16,     17,     18,     19
    11,     19,     18,     20,     21
    12,     21,     20,     22,     23
    13,     23,     22,     24,     25
    14,     17,     26,     27,     18
    15,     18,     27,     28,     20
    16,     20,     28,     29,     22
    17,     22,     29,     30,     24
    18,     31,     32,     33,     34
    19,     32,     35,     36,     33
    20,     35,     37,     38,     36
    21,     37,     39,     40,     38
** ... 4356 like lines cut
** Names based on lower
*NSET,NSET=Nlower 
3, 
6, 
8, 
33, 
36, 
38, 
74, 
76, 
78, 
109, 
110, 
111, 
144, 
146, 
148, 
166, 
168, 
170, 
187, 
189, 
** ... 484 like lines cut
*ELSET,ELSET=Elower 
2, 
3, 
4, 
5, 
6, 
7, 
8, 
9, 
18, 
19, 
20, 
21, 
22, 
23, 
24, 
25, 
58, 
59, 
60, 
61, 
** ... 992 like lines cut
** Names based on upper
*NSET,NSET=Nupper 
18, 
20, 
22, 
64, 
66, 
68, 
95, 
98, 
100, 
134, 
136, 
137, 
156, 
159, 
161, 
199, 
201, 
203, 
226, 
228, 
** ... 484 like lines cut
*ELSET,ELSET=Eupper 
10, 
11, 
12, 
13, 
14, 
15, 
16, 
17, 
50, 
51, 
52, 
53, 
54, 
55, 
56, 
57, 
74, 
75, 
76, 
77, 
** ... 992 like lines cut
** Names based on double
*NSET,NSET=Ndouble 
57, 
59, 
61, 
128, 
130, 
132, 
218, 
220, 
222, 
268, 
269, 
270, 
292, 
294, 
296, 
355, 
357, 
359, 
439, 
441, 
** ... 232 like lines cut
*ELSET,ELSET=Edouble 
42, 
43, 
44, 
45, 
46, 
47, 
48, 
49, 
106, 
107, 
108, 
109, 
110, 
111, 
112, 
113, 
194, 
195, 
196, 
197, 
** ... 412 like lines cut
** Names based on single
*NSET,NSET=Nsingle 
11, 
12, 
13, 
14, 
15, 
26, 
27, 
28, 
29, 
30, 
41, 
42, 
43, 
44, 
45, 
46, 
47, 
48, 
49, 
50, 
** ... 1772 like lines cut
*ELSET,ELSET=Esingle 
26, 
27, 
28, 
29, 
30, 
31, 
32, 
33, 
34, 
35, 
36, 
37, 
38, 
39, 
40, 
41, 
66, 
67, 
68, 
69, 
** ... 1100 like lines cut
** Names based on cyl1
*NSET,NSET=Ncyl1 
4410, 
4411, 
4412, 
4413, 
4414, 
4415, 
4416, 
4417, 
4418, 
4419, 
4420, 
4421, 
4422, 
4423, 
4424, 
4425, 
4426, 
4427, 
4428, 
4429, 
** ... 431 like lines cut
*ELSET,ELSET=Ecyl1 
4707, 
4708, 
4709, 
4710, 
4711, 
4712, 
4713, 
4714, 
4715, 
4716, 
4717, 
4718, 
4719, 
4720, 
4721, 
4722, 
4723, 
4724, 
4725, 
4726, 
** ... 380 like lines cut
** Names based on cyl2
*NSET,NSET=Ncyl2 
4861, 
4862, 
4863, 
4864, 
4865, 
4866, 
4867, 
4868, 
4869, 
4870, 
4871, 
4872, 
4873, 
4874, 
4875, 
4876, 
4877, 
4878, 
4879, 
4880, 
** ... 431 like lines cut
*ELSET,ELSET=Ecyl2 
5108, 
5109, 
5110, 
5111, 
5112, 
5113, 
5114, 
5115, 
5116, 
5117, 
5118, 
5119, 
5120, 
5121, 
5122, 
5123, 
5124, 
5125, 
5126, 
5127, 
** ... 380 like lines cut
** Names based on mon1
*NSET,NSET=Nmon1 
4520, 
** Names based on monc
*NSET,NSET=Nmonc 
1, 
** Names based on xsym
*NSET,NSET=Nxsym 
1, 
2, 
5, 
7, 
9, 
16, 
19, 
21, 
23, 
25, 
56, 
58, 
60, 
142, 
145, 
147, 
149, 
154, 
155, 
158, 
** ... 26 like lines cut
** surface definitions
** Surfaces based on lower
*SURFACE, NAME=Slower
2, SPOS 
2, S3
2, S6
3, SPOS 
3, S3
6, SPOS 
7, SPOS 
6, S6
4, SPOS 
4, S3
8, SPOS 
5, SPOS 
5, S3
9, SPOS 
133, SPOS 
133, S5
133, S6
137, SPOS 
137, S5
25, SPOS 
24, SPOS 
23, SPOS 
22, SPOS 
150, SPOS 
18, SPOS 
82, SPOS 
146, SPOS 
210, SPOS 
19, SPOS 
83, SPOS 
20, SPOS 
84, SPOS 
21, SPOS 
85, SPOS 
58, SPOS 
58, S3
306, SPOS 
306, S6
62, SPOS 
62, S3
59, SPOS 
63, SPOS 
307, SPOS 
60, SPOS 
64, SPOS 
308, SPOS 
61, SPOS 
65, SPOS 
309, SPOS 
189, SPOS 
189, S4
193, SPOS 
193, S4
821, SPOS 
821, S5
89, SPOS 
88, SPOS 
87, SPOS 
86, SPOS 
214, SPOS 
130, SPOS 
170, SPOS 
130, S6
170, S3
134, SPOS 
174, SPOS 
131, SPOS 
135, SPOS 
131, S6
132, SPOS 
136, SPOS 
132, S6
153, SPOS 
265, SPOS 
265, S4
152, SPOS 
151, SPOS 
147, SPOS 
211, SPOS 
148, SPOS 
212, SPOS 
149, SPOS 
213, SPOS 
261, SPOS 
261, S4
325, SPOS 
325, S5
171, SPOS 
171, S3
175, SPOS 
172, SPOS 
172, S3
176, SPOS 
173, SPOS 
173, S3
177, SPOS 
373, SPOS 
373, S5
373, S6
377, SPOS 
377, S5
264, SPOS 
263, SPOS 
262, SPOS 
390, SPOS 
186, SPOS 
818, SPOS 
298, SPOS 
858, SPOS 
187, SPOS 
819, SPOS 
190, SPOS 
191, SPOS 
302, SPOS 
188, SPOS 
820, SPOS 
192, SPOS 
217, SPOS 
216, SPOS 
329, SPOS 
329, S5
215, SPOS 
258, SPOS 
322, SPOS 
386, SPOS 
442, SPOS 
259, SPOS 
323, SPOS 
260, SPOS 
324, SPOS 
299, SPOS 
303, SPOS 
859, SPOS 
300, SPOS 
304, SPOS 
860, SPOS 
301, SPOS 
305, SPOS 
861, SPOS 
421, SPOS 
421, S4
425, SPOS 
425, S4
1045, SPOS 
1045, S5
328, SPOS 
327, SPOS 
326, SPOS 
446, SPOS 
310, SPOS 
311, SPOS 
310, S6
312, SPOS 
313, SPOS 
825, SPOS 
825, S5
553, SPOS 
552, SPOS 
551, SPOS 
550, SPOS 
838, SPOS 
370, SPOS 
482, SPOS 
370, S6
482, S3
374, SPOS 
486, SPOS 
371, SPOS 
375, SPOS 
371, S6
372, SPOS 
376, SPOS 
372, S6
393, SPOS 
505, SPOS 
505, S4
392, SPOS 
391, SPOS 
387, SPOS 
443, SPOS 
388, SPOS 
444, SPOS 
389, SPOS 
445, SPOS 
501, SPOS 
501, S4
565, SPOS 
565, S5
418, SPOS 
1042, SPOS 
538, SPOS 
1154, SPOS 
419, SPOS 
1043, SPOS 
422, SPOS 
423, SPOS 
542, SPOS 
420, SPOS 
1044, SPOS 
424, SPOS 
449, SPOS 
448, SPOS 
569, SPOS 
569, S5
447, SPOS 
483, SPOS 
483, S3
487, SPOS 
484, SPOS 
484, S3
488, SPOS 
484, S4
488, S4
504, SPOS 
503, SPOS 
503, S6
499, SPOS 
499, S6
563, SPOS 
563, S3
500, SPOS 
564, SPOS 
539, SPOS 
543, SPOS 
1155, SPOS 
540, SPOS 
544, SPOS 
1156, SPOS 
540, S5
544, S5
1156, S4
568, SPOS 
567, SPOS 
567, S3
546, SPOS 
770, SPOS 
834, SPOS 
898, SPOS 
547, SPOS 
771, SPOS 
548, SPOS 
772, SPOS 
549, SPOS 
773, SPOS 
746, SPOS 
746, S3
1378, SPOS 
1378, S6
750, SPOS 
750, S3
747, SPOS 
751, SPOS 
1379, SPOS 
748, SPOS 
752, SPOS 
1380, SPOS 
749, SPOS 
753, SPOS 
1381, SPOS 
877, SPOS 
877, S4
881, SPOS 
881, S4
1509, SPOS 
1509, S5
777, SPOS 
776, SPOS 
775, SPOS 
774, SPOS 
902, SPOS 
822, SPOS 
862, SPOS 
823, SPOS 
824, SPOS 
841, SPOS 
953, SPOS 
953, S4
840, SPOS 
839, SPOS 
835, SPOS 
899, SPOS 
836, SPOS 
900, SPOS 
837, SPOS 
901, SPOS 
949, SPOS 
949, S4
1005, SPOS 
1005, S5
863, SPOS 
864, SPOS 
865, SPOS 
1049, SPOS 
1049, S5
952, SPOS 
951, SPOS 
950, SPOS 
1062, SPOS 
874, SPOS 
1506, SPOS 
986, SPOS 
1546, SPOS 
875, SPOS 
1507, SPOS 
878, SPOS 
879, SPOS 
990, SPOS 
876, SPOS 
1508, SPOS 
880, SPOS 
905, SPOS 
904, SPOS 
1009, SPOS 
1009, S5
903, SPOS 
946, SPOS 
1002, SPOS 
1058, SPOS 
1114, SPOS 
947, SPOS 
1003, SPOS 
948, SPOS 
1004, SPOS 
987, SPOS 
991, SPOS 
1547, SPOS 
988, SPOS 
992, SPOS 
1548, SPOS 
989, SPOS 
993, SPOS 
1549, SPOS 
1093, SPOS 
1093, S4
1097, SPOS 
1097, S4
1733, SPOS 
1733, S5
1008, SPOS 
1007, SPOS 
1006, SPOS 
1118, SPOS 
1046, SPOS 
1158, SPOS 
1047, SPOS 
1048, SPOS 
1065, SPOS 
1177, SPOS 
1177, S4
1064, SPOS 
1063, SPOS 
1059, SPOS 
1115, SPOS 
1060, SPOS 
1116, SPOS 
1061, SPOS 
1117, SPOS 
1173, SPOS 
1173, S4
1229, SPOS 
1229, S5
1090, SPOS 
1730, SPOS 
1210, SPOS 
1842, SPOS 
1091, SPOS 
1731, SPOS 
1094, SPOS 
1095, SPOS 
1214, SPOS 
1092, SPOS 
1732, SPOS 
1096, SPOS 
1121, SPOS 
1120, SPOS 
1233, SPOS 
1233, S5
1119, SPOS 
1159, SPOS 
1160, SPOS 
1160, S4
1176, SPOS 
1175, SPOS 
1175, S6
1171, SPOS 
1171, S6
1227, SPOS 
1227, S3
1172, SPOS 
1228, SPOS 
1211, SPOS 
1215, SPOS 
1843, SPOS 
1212, SPOS 
1216, SPOS 
1844, SPOS 
1212, S5
1216, S5
1844, S4
1232, SPOS 
1231, SPOS 
1231, S3
1382, SPOS 
1383, SPOS 
1382, S6
1384, SPOS 
1385, SPOS 
1513, SPOS 
1513, S5
1401, SPOS 
1400, SPOS 
1399, SPOS 
1398, SPOS 
1526, SPOS 
1394, SPOS 
1458, SPOS 
1522, SPOS 
1586, SPOS 
1395, SPOS 
1459, SPOS 
1396, SPOS 
1460, SPOS 
1397, SPOS 
1461, SPOS 
1434, SPOS 
1434, S3
2066, SPOS 
2066, S6
1438, SPOS 
1438, S3
1435, SPOS 
1439, SPOS 
2067, SPOS 
1436, SPOS 
1440, SPOS 
2068, SPOS 
1437, SPOS 
1441, SPOS 
2069, SPOS 
1565, SPOS 
1565, S4
1569, SPOS 
1569, S4
2197, SPOS 
2197, S5
1465, SPOS 
1464, SPOS 
1463, SPOS 
1462, SPOS 
1590, SPOS 
1510, SPOS 
1550, SPOS 
1511, SPOS 
1512, SPOS 
1529, SPOS 
1641, SPOS 
1641, S4
1528, SPOS 
1527, SPOS 
1523, SPOS 
1587, SPOS 
1524, SPOS 
1588, SPOS 
1525, SPOS 
1589, SPOS 
1637, SPOS 
1637, S4
1693, SPOS 
1693, S5
1551, SPOS 
1552, SPOS 
1553, SPOS 
1737, SPOS 
1737, S5
1640, SPOS 
1639, SPOS 
1638, SPOS 
1750, SPOS 
1562, SPOS 
2194, SPOS 
1674, SPOS 
2234, SPOS 
1563, SPOS 
2195, SPOS 
1566, SPOS 
1567, SPOS 
1678, SPOS 
1564, SPOS 
2196, SPOS 
1568, SPOS 
1593, SPOS 
1592, SPOS 
1697, SPOS 
1697, S5
1591, SPOS 
1634, SPOS 
1690, SPOS 
1746, SPOS 
1802, SPOS 
1635, SPOS 
1691, SPOS 
1636, SPOS 
1692, SPOS 
1675, SPOS 
1679, SPOS 
2235, SPOS 
1676, SPOS 
1680, SPOS 
2236, SPOS 
1677, SPOS 
1681, SPOS 
2237, SPOS 
1781, SPOS 
1781, S4
1785, SPOS 
1785, S4
2421, SPOS 
2421, S5
1696, SPOS 
1695, SPOS 
1694, SPOS 
1806, SPOS 
1734, SPOS 
1846, SPOS 
1735, SPOS 
1736, SPOS 
1753, SPOS 
1865, SPOS 
1865, S4
1752, SPOS 
1751, SPOS 
1747, SPOS 
1803, SPOS 
1748, SPOS 
1804, SPOS 
1749, SPOS 
1805, SPOS 
1861, SPOS 
1861, S4
1917, SPOS 
1917, S5
1778, SPOS 
2418, SPOS 
1898, SPOS 
2530, SPOS 
1779, SPOS 
2419, SPOS 
1782, SPOS 
1783, SPOS 
1902, SPOS 
1780, SPOS 
2420, SPOS 
1784, SPOS 
1809, SPOS 
1808, SPOS 
1921, SPOS 
1921, S5
1807, SPOS 
1847, SPOS 
1848, SPOS 
1848, S4
1864, SPOS 
1863, SPOS 
1863, S6
1859, SPOS 
1859, S6
1915, SPOS 
1915, S3
1860, SPOS 
1916, SPOS 
1899, SPOS 
1903, SPOS 
2531, SPOS 
1900, SPOS 
1904, SPOS 
2532, SPOS 
1900, S5
1904, S5
2532, S4
1920, SPOS 
1919, SPOS 
1919, S3
2070, SPOS 
2071, SPOS 
2070, S6
2072, SPOS 
2073, SPOS 
2201, SPOS 
2201, S5
2089, SPOS 
2088, SPOS 
2087, SPOS 
2086, SPOS 
2214, SPOS 
2082, SPOS 
2146, SPOS 
2210, SPOS 
2274, SPOS 
2083, SPOS 
2147, SPOS 
2084, SPOS 
2148, SPOS 
2085, SPOS 
2149, SPOS 
2122, SPOS 
2122, S3
2754, SPOS 
2754, S6
2126, SPOS 
2126, S3
2123, SPOS 
2127, SPOS 
2755, SPOS 
2124, SPOS 
2128, SPOS 
2756, SPOS 
2125, SPOS 
2129, SPOS 
2757, SPOS 
2253, SPOS 
2253, S4
2257, SPOS 
2257, S4
2885, SPOS 
2885, S5
2153, SPOS 
2152, SPOS 
2151, SPOS 
2150, SPOS 
2278, SPOS 
2198, SPOS 
2238, SPOS 
2199, SPOS 
2200, SPOS 
2217, SPOS 
2329, SPOS 
2329, S4
2216, SPOS 
2215, SPOS 
2211, SPOS 
2275, SPOS 
2212, SPOS 
2276, SPOS 
2213, SPOS 
2277, SPOS 
2325, SPOS 
2325, S4
2381, SPOS 
2381, S5
2239, SPOS 
2240, SPOS 
2241, SPOS 
2425, SPOS 
2425, S5
2328, SPOS 
2327, SPOS 
2326, SPOS 
2438, SPOS 
2250, SPOS 
2882, SPOS 
2362, SPOS 
2922, SPOS 
2251, SPOS 
2883, SPOS 
2254, SPOS 
2255, SPOS 
2366, SPOS 
2252, SPOS 
2884, SPOS 
2256, SPOS 
2281, SPOS 
2280, SPOS 
2385, SPOS 
2385, S5
2279, SPOS 
2322, SPOS 
2378, SPOS 
2434, SPOS 
2490, SPOS 
2323, SPOS 
2379, SPOS 
2324, SPOS 
2380, SPOS 
2363, SPOS 
2367, SPOS 
2923, SPOS 
2364, SPOS 
2368, SPOS 
2924, SPOS 
2365, SPOS 
2369, SPOS 
2925, SPOS 
2469, SPOS 
2469, S4
2473, SPOS 
2473, S4
3109, SPOS 
3109, S5
2384, SPOS 
2383, SPOS 
2382, SPOS 
2494, SPOS 
2422, SPOS 
2534, SPOS 
2423, SPOS 
2424, SPOS 
2441, SPOS 
2553, SPOS 
2553, S4
2440, SPOS 
2439, SPOS 
2435, SPOS 
2491, SPOS 
2436, SPOS 
2492, SPOS 
2437, SPOS 
2493, SPOS 
2549, SPOS 
2549, S4
2605, SPOS 
2605, S5
2466, SPOS 
3106, SPOS 
2586, SPOS 
3218, SPOS 
2467, SPOS 
3107, SPOS 
2470, SPOS 
2471, SPOS 
2590, SPOS 
2468, SPOS 
3108, SPOS 
2472, SPOS 
2497, SPOS 
2496, SPOS 
2609, SPOS 
2609, S5
2495, SPOS 
2535, SPOS 
2536, SPOS 
2536, S4
2552, SPOS 
2551, SPOS 
2551, S6
2547, SPOS 
2547, S6
2603, SPOS 
2603, S3
2548, SPOS 
2604, SPOS 
2587, SPOS 
2591, SPOS 
3219, SPOS 
2588, SPOS 
2592, SPOS 
3220, SPOS 
2588, S5
2592, S5
3220, S4
2608, SPOS 
2607, SPOS 
2607, S3
2758, SPOS 
2759, SPOS 
2758, S6
2760, SPOS 
2761, SPOS 
2889, SPOS 
2889, S5
2777, SPOS 
2776, SPOS 
2775, SPOS 
2774, SPOS 
2902, SPOS 
2770, SPOS 
2834, SPOS 
2898, SPOS 
2962, SPOS 
2771, SPOS 
2835, SPOS 
2772, SPOS 
2836, SPOS 
2773, SPOS 
2837, SPOS 
2810, SPOS 
2810, S3
3442, SPOS 
3442, S6
2814, SPOS 
2814, S3
2811, SPOS 
2815, SPOS 
3443, SPOS 
2812, SPOS 
2816, SPOS 
3444, SPOS 
2813, SPOS 
2817, SPOS 
3445, SPOS 
2941, SPOS 
2941, S4
2945, SPOS 
2945, S4
3573, SPOS 
3573, S5
2841, SPOS 
2840, SPOS 
2839, SPOS 
2838, SPOS 
2966, SPOS 
2886, SPOS 
2926, SPOS 
2887, SPOS 
2888, SPOS 
2905, SPOS 
3017, SPOS 
3017, S4
2904, SPOS 
2903, SPOS 
2899, SPOS 
2963, SPOS 
2900, SPOS 
2964, SPOS 
2901, SPOS 
2965, SPOS 
3013, SPOS 
3013, S4
3069, SPOS 
3069, S5
2927, SPOS 
2928, SPOS 
2929, SPOS 
3113, SPOS 
3113, S5
3016, SPOS 
3015, SPOS 
3014, SPOS 
3126, SPOS 
2938, SPOS 
3570, SPOS 
3050, SPOS 
3610, SPOS 
2939, SPOS 
3571, SPOS 
2942, SPOS 
2943, SPOS 
3054, SPOS 
2940, SPOS 
3572, SPOS 
2944, SPOS 
2969, SPOS 
2968, SPOS 
3073, SPOS 
3073, S5
2967, SPOS 
3010, SPOS 
3066, SPOS 
3122, SPOS 
3178, SPOS 
3011, SPOS 
3067, SPOS 
3012, SPOS 
3068, SPOS 
3051, SPOS 
3055, SPOS 
3611, SPOS 
3052, SPOS 
3056, SPOS 
3612, SPOS 
3053, SPOS 
3057, SPOS 
3613, SPOS 
3157, SPOS 
3157, S4
3161, SPOS 
3161, S4
3797, SPOS 
3797, S5
3072, SPOS 
3071, SPOS 
3070, SPOS 
3182, SPOS 
3110, SPOS 
3222, SPOS 
3111, SPOS 
3112, SPOS 
3129, SPOS 
3241, SPOS 
3241, S4
3128, SPOS 
3127, SPOS 
3123, SPOS 
3179, SPOS 
3124, SPOS 
3180, SPOS 
3125, SPOS 
3181, SPOS 
3237, SPOS 
3237, S4
3293, SPOS 
3293, S5
3154, SPOS 
3794, SPOS 
3274, SPOS 
3906, SPOS 
3155, SPOS 
3795, SPOS 
3158, SPOS 
3159, SPOS 
3278, SPOS 
3156, SPOS 
3796, SPOS 
3160, SPOS 
3185, SPOS 
3184, SPOS 
3297, SPOS 
3297, S5
3183, SPOS 
3223, SPOS 
3224, SPOS 
3224, S4
3240, SPOS 
3239, SPOS 
3239, S6
3235, SPOS 
3235, S6
3291, SPOS 
3291, S3
3236, SPOS 
3292, SPOS 
3275, SPOS 
3279, SPOS 
3907, SPOS 
3276, SPOS 
3280, SPOS 
3908, SPOS 
3276, S5
3280, S5
3908, S4
3296, SPOS 
3295, SPOS 
3295, S3
3446, SPOS 
3447, SPOS 
3446, S6
3448, SPOS 
3449, SPOS 
3577, SPOS 
3577, S5
3465, SPOS 
3464, SPOS 
3463, SPOS 
3462, SPOS 
3590, SPOS 
3458, SPOS 
3522, SPOS 
3586, SPOS 
3650, SPOS 
3459, SPOS 
3523, SPOS 
3460, SPOS 
3524, SPOS 
3461, SPOS 
3525, SPOS 
3498, SPOS 
3498, S3
4130, SPOS 
4130, S6
3502, SPOS 
3502, S3
3499, SPOS 
3503, SPOS 
4131, SPOS 
3500, SPOS 
3504, SPOS 
4132, SPOS 
3501, SPOS 
3505, SPOS 
4133, SPOS 
3629, SPOS 
3629, S4
3633, SPOS 
3633, S4
4261, SPOS 
4261, S5
3529, SPOS 
3528, SPOS 
3527, SPOS 
3526, SPOS 
3654, SPOS 
3574, SPOS 
3614, SPOS 
3575, SPOS 
3576, SPOS 
3593, SPOS 
3705, SPOS 
3705, S4
3592, SPOS 
3591, SPOS 
3587, SPOS 
3651, SPOS 
3588, SPOS 
3652, SPOS 
3589, SPOS 
3653, SPOS 
3701, SPOS 
3701, S4
3757, SPOS 
3757, S5
3615, SPOS 
3616, SPOS 
3617, SPOS 
3801, SPOS 
3801, S5
3704, SPOS 
3703, SPOS 
3702, SPOS 
3814, SPOS 
3626, SPOS 
4258, SPOS 
3738, SPOS 
4298, SPOS 
3627, SPOS 
4259, SPOS 
3630, SPOS 
3631, SPOS 
3742, SPOS 
3628, SPOS 
4260, SPOS 
3632, SPOS 
3657, SPOS 
3656, SPOS 
3761, SPOS 
3761, S5
3655, SPOS 
3698, SPOS 
3754, SPOS 
3810, SPOS 
3866, SPOS 
3699, SPOS 
3755, SPOS 
3700, SPOS 
3756, SPOS 
3739, SPOS 
3743, SPOS 
4299, SPOS 
3740, SPOS 
3744, SPOS 
4300, SPOS 
3741, SPOS 
3745, SPOS 
4301, SPOS 
3845, SPOS 
3845, S4
3849, SPOS 
3849, S4
4485, SPOS 
4485, S5
3760, SPOS 
3759, SPOS 
3758, SPOS 
3870, SPOS 
3798, SPOS 
3910, SPOS 
3799, SPOS 
3800, SPOS 
3817, SPOS 
3929, SPOS 
3929, S4
3816, SPOS 
3815, SPOS 
3811, SPOS 
3867, SPOS 
3812, SPOS 
3868, SPOS 
3813, SPOS 
3869, SPOS 
3925, SPOS 
3925, S4
3981, SPOS 
3981, S5
3842, SPOS 
4482, SPOS 
3962, SPOS 
4594, SPOS 
3843, SPOS 
4483, SPOS 
3846, SPOS 
3847, SPOS 
3966, SPOS 
3844, SPOS 
4484, SPOS 
3848, SPOS 
3873, SPOS 
3872, SPOS 
3985, SPOS 
3985, S5
3871, SPOS 
3911, SPOS 
3912, SPOS 
3912, S4
3928, SPOS 
3927, SPOS 
3927, S6
3923, SPOS 
3923, S6
3979, SPOS 
3979, S3
3924, SPOS 
3980, SPOS 
3963, SPOS 
3967, SPOS 
4595, SPOS 
3964, SPOS 
3968, SPOS 
4596, SPOS 
3964, S5
3968, S5
4596, S4
3984, SPOS 
3983, SPOS 
3983, S3
4134, SPOS 
4135, SPOS 
4134, S6
4136, SPOS 
4137, SPOS 
4265, SPOS 
4265, S5
4153, SPOS 
4152, SPOS 
4151, SPOS 
4150, SPOS 
4278, SPOS 
4146, SPOS 
4210, SPOS 
4274, SPOS 
4338, SPOS 
4147, SPOS 
4211, SPOS 
4148, SPOS 
4212, SPOS 
4149, SPOS 
4213, SPOS 
4217, SPOS 
4217, S3
4210, S4
4338, S5
4211, S4
4212, S4
4262, SPOS 
4302, SPOS 
4263, SPOS 
4264, SPOS 
4281, SPOS 
4393, SPOS 
4393, S4
4280, SPOS 
4279, SPOS 
4275, SPOS 
4339, SPOS 
4276, SPOS 
4340, SPOS 
4277, SPOS 
4341, SPOS 
4389, SPOS 
4389, S4
4445, SPOS 
4445, S5
4303, SPOS 
4304, SPOS 
4305, SPOS 
4489, SPOS 
4489, S5
4392, SPOS 
4391, SPOS 
4390, SPOS 
4502, SPOS 
4345, SPOS 
4345, S6
4449, SPOS 
4449, S5
4339, S5
4340, S5
4386, SPOS 
4442, SPOS 
4498, SPOS 
4554, SPOS 
4387, SPOS 
4443, SPOS 
4388, SPOS 
4444, SPOS 
4449, S3
4442, S4
4554, S5
4443, S4
4444, S4
4486, SPOS 
4598, SPOS 
4487, SPOS 
4488, SPOS 
4505, SPOS 
4617, SPOS 
4617, S4
4504, SPOS 
4503, SPOS 
4499, SPOS 
4555, SPOS 
4500, SPOS 
4556, SPOS 
4501, SPOS 
4557, SPOS 
4613, SPOS 
4613, S4
4669, SPOS 
4669, S5
4561, SPOS 
4561, S6
4673, SPOS 
4673, S5
4555, S5
4556, S5
4599, SPOS 
4600, SPOS 
4600, S4
4616, SPOS 
4615, SPOS 
4615, S6
4611, SPOS 
4611, S6
4667, SPOS 
4667, S3
4612, SPOS 
4668, SPOS 
4673, S3
4667, S4
4668, S4
** Surfaces based on upper
*SURFACE, NAME=Supper
10, SPOS 
10, S3
10, S6
14, SPOS 
14, S3
11, SPOS 
15, SPOS 
11, S6
12, SPOS 
16, SPOS 
12, S6
13, SPOS 
17, SPOS 
13, S6
141, SPOS 
141, S4
145, SPOS 
145, S4
141, S3
57, SPOS 
57, S4
56, SPOS 
56, S4
55, SPOS 
55, S4
54, SPOS 
54, S4
182, SPOS 
182, S5
50, SPOS 
178, SPOS 
114, SPOS 
242, SPOS 
51, SPOS 
115, SPOS 
52, SPOS 
116, SPOS 
53, SPOS 
117, SPOS 
74, SPOS 
362, SPOS 
74, S6
362, S3
75, SPOS 
363, SPOS 
78, SPOS 
79, SPOS 
78, S6
76, SPOS 
364, SPOS 
80, SPOS 
77, SPOS 
365, SPOS 
81, SPOS 
205, SPOS 
205, S5
829, SPOS 
829, S4
209, SPOS 
209, S5
121, SPOS 
121, S5
120, SPOS 
120, S5
119, SPOS 
119, S5
118, SPOS 
118, S5
246, SPOS 
246, S4
138, SPOS 
138, S3
234, SPOS 
234, S6
139, SPOS 
139, S3
142, SPOS 
143, SPOS 
238, SPOS 
140, SPOS 
140, S3
144, SPOS 
185, SPOS 
185, S5
184, SPOS 
184, S5
297, SPOS 
297, S5
297, S4
183, SPOS 
183, S5
179, SPOS 
243, SPOS 
180, SPOS 
244, SPOS 
181, SPOS 
245, SPOS 
293, SPOS 
293, S5
357, SPOS 
357, S4
202, SPOS 
314, SPOS 
826, SPOS 
922, SPOS 
206, SPOS 
318, SPOS 
203, SPOS 
207, SPOS 
827, SPOS 
204, SPOS 
208, SPOS 
828, SPOS 
249, SPOS 
249, S4
361, SPOS 
361, S4
361, S5
248, SPOS 
248, S4
247, SPOS 
247, S4
235, SPOS 
239, SPOS 
235, S6
236, SPOS 
240, SPOS 
236, S6
237, SPOS 
241, SPOS 
237, S6
381, SPOS 
381, S4
385, SPOS 
385, S4
381, S3
296, SPOS 
296, S4
295, SPOS 
295, S4
294, SPOS 
294, S4
414, SPOS 
414, S5
290, SPOS 
410, SPOS 
354, SPOS 
466, SPOS 
291, SPOS 
355, SPOS 
292, SPOS 
356, SPOS 
315, SPOS 
923, SPOS 
319, SPOS 
316, SPOS 
924, SPOS 
320, SPOS 
317, SPOS 
925, SPOS 
321, SPOS 
437, SPOS 
437, S5
1053, SPOS 
1053, S4
441, SPOS 
441, S5
360, SPOS 
360, S5
359, SPOS 
359, S5
358, SPOS 
358, S5
470, SPOS 
470, S4
366, SPOS 
366, S3
367, SPOS 
368, SPOS 
369, SPOS 
833, SPOS 
833, S4
745, SPOS 
745, S4
744, SPOS 
744, S4
743, SPOS 
743, S4
742, SPOS 
742, S4
870, SPOS 
870, S5
378, SPOS 
378, S3
490, SPOS 
490, S6
379, SPOS 
379, S3
382, SPOS 
383, SPOS 
494, SPOS 
380, SPOS 
380, S3
384, SPOS 
417, SPOS 
417, S5
416, SPOS 
416, S5
537, SPOS 
537, S5
537, S4
415, SPOS 
415, S5
411, SPOS 
467, SPOS 
412, SPOS 
468, SPOS 
413, SPOS 
469, SPOS 
533, SPOS 
533, S5
597, SPOS 
597, S4
434, SPOS 
554, SPOS 
1050, SPOS 
1162, SPOS 
438, SPOS 
558, SPOS 
435, SPOS 
439, SPOS 
1051, SPOS 
436, SPOS 
440, SPOS 
1052, SPOS 
473, SPOS 
473, S4
601, SPOS 
601, S4
601, S5
472, SPOS 
472, S4
471, SPOS 
471, S4
491, SPOS 
495, SPOS 
491, S6
492, SPOS 
496, SPOS 
492, S6
492, S5
496, S5
536, SPOS 
536, S4
535, SPOS 
535, S4
535, S3
531, SPOS 
531, S3
595, SPOS 
595, S6
532, SPOS 
596, SPOS 
555, SPOS 
1163, SPOS 
559, SPOS 
556, SPOS 
1164, SPOS 
560, SPOS 
556, S4
1164, S5
560, S4
600, SPOS 
600, S5
599, SPOS 
599, S5
599, S6
738, SPOS 
866, SPOS 
802, SPOS 
930, SPOS 
739, SPOS 
803, SPOS 
740, SPOS 
804, SPOS 
741, SPOS 
805, SPOS 
762, SPOS 
1386, SPOS 
762, S6
1386, S3
763, SPOS 
1387, SPOS 
766, SPOS 
767, SPOS 
766, S6
764, SPOS 
1388, SPOS 
768, SPOS 
765, SPOS 
1389, SPOS 
769, SPOS 
893, SPOS 
893, S5
1517, SPOS 
1517, S4
897, SPOS 
897, S5
809, SPOS 
809, S5
808, SPOS 
808, S5
807, SPOS 
807, S5
806, SPOS 
806, S5
934, SPOS 
934, S4
830, SPOS 
831, SPOS 
926, SPOS 
832, SPOS 
873, SPOS 
873, S5
872, SPOS 
872, S5
985, SPOS 
985, S5
985, S4
871, SPOS 
871, S5
867, SPOS 
931, SPOS 
868, SPOS 
932, SPOS 
869, SPOS 
933, SPOS 
981, SPOS 
981, S5
1037, SPOS 
1037, S4
890, SPOS 
994, SPOS 
1514, SPOS 
1610, SPOS 
894, SPOS 
998, SPOS 
891, SPOS 
895, SPOS 
1515, SPOS 
892, SPOS 
896, SPOS 
1516, SPOS 
937, SPOS 
937, S4
1041, SPOS 
1041, S4
1041, S5
936, SPOS 
936, S4
935, SPOS 
935, S4
927, SPOS 
928, SPOS 
929, SPOS 
1057, SPOS 
1057, S4
984, SPOS 
984, S4
983, SPOS 
983, S4
982, SPOS 
982, S4
1086, SPOS 
1086, S5
978, SPOS 
1082, SPOS 
1034, SPOS 
1138, SPOS 
979, SPOS 
1035, SPOS 
980, SPOS 
1036, SPOS 
995, SPOS 
1611, SPOS 
999, SPOS 
996, SPOS 
1612, SPOS 
1000, SPOS 
997, SPOS 
1613, SPOS 
1001, SPOS 
1109, SPOS 
1109, S5
1741, SPOS 
1741, S4
1113, SPOS 
1113, S5
1040, SPOS 
1040, S5
1039, SPOS 
1039, S5
1038, SPOS 
1038, S5
1142, SPOS 
1142, S4
1054, SPOS 
1055, SPOS 
1166, SPOS 
1056, SPOS 
1089, SPOS 
1089, S5
1088, SPOS 
1088, S5
1209, SPOS 
1209, S5
1209, S4
1087, SPOS 
1087, S5
1083, SPOS 
1139, SPOS 
1084, SPOS 
1140, SPOS 
1085, SPOS 
1141, SPOS 
1205, SPOS 
1205, S5
1261, SPOS 
1261, S4
1106, SPOS 
1218, SPOS 
1738, SPOS 
1850, SPOS 
1110, SPOS 
1222, SPOS 
1107, SPOS 
1111, SPOS 
1739, SPOS 
1108, SPOS 
1112, SPOS 
1740, SPOS 
1145, SPOS 
1145, S4
1265, SPOS 
1265, S4
1265, S5
1144, SPOS 
1144, S4
1143, SPOS 
1143, S4
1167, SPOS 
1168, SPOS 
1168, S5
1208, SPOS 
1208, S4
1207, SPOS 
1207, S4
1207, S3
1203, SPOS 
1203, S3
1259, SPOS 
1259, S6
1204, SPOS 
1260, SPOS 
1219, SPOS 
1851, SPOS 
1223, SPOS 
1220, SPOS 
1852, SPOS 
1224, SPOS 
1220, S4
1852, S5
1224, S4
1264, SPOS 
1264, S5
1263, SPOS 
1263, S5
1263, S6
1390, SPOS 
1390, S3
1391, SPOS 
1392, SPOS 
1393, SPOS 
1521, SPOS 
1521, S4
1433, SPOS 
1433, S4
1432, SPOS 
1432, S4
1431, SPOS 
1431, S4
1430, SPOS 
1430, S4
1558, SPOS 
1558, S5
1426, SPOS 
1554, SPOS 
1490, SPOS 
1618, SPOS 
1427, SPOS 
1491, SPOS 
1428, SPOS 
1492, SPOS 
1429, SPOS 
1493, SPOS 
1450, SPOS 
2074, SPOS 
1450, S6
2074, S3
1451, SPOS 
2075, SPOS 
1454, SPOS 
1455, SPOS 
1454, S6
1452, SPOS 
2076, SPOS 
1456, SPOS 
1453, SPOS 
2077, SPOS 
1457, SPOS 
1581, SPOS 
1581, S5
2205, SPOS 
2205, S4
1585, SPOS 
1585, S5
1497, SPOS 
1497, S5
1496, SPOS 
1496, S5
1495, SPOS 
1495, S5
1494, SPOS 
1494, S5
1622, SPOS 
1622, S4
1518, SPOS 
1519, SPOS 
1614, SPOS 
1520, SPOS 
1561, SPOS 
1561, S5
1560, SPOS 
1560, S5
1673, SPOS 
1673, S5
1673, S4
1559, SPOS 
1559, S5
1555, SPOS 
1619, SPOS 
1556, SPOS 
1620, SPOS 
1557, SPOS 
1621, SPOS 
1669, SPOS 
1669, S5
1725, SPOS 
1725, S4
1578, SPOS 
1682, SPOS 
2202, SPOS 
2298, SPOS 
1582, SPOS 
1686, SPOS 
1579, SPOS 
1583, SPOS 
2203, SPOS 
1580, SPOS 
1584, SPOS 
2204, SPOS 
1625, SPOS 
1625, S4
1729, SPOS 
1729, S4
1729, S5
1624, SPOS 
1624, S4
1623, SPOS 
1623, S4
1615, SPOS 
1616, SPOS 
1617, SPOS 
1745, SPOS 
1745, S4
1672, SPOS 
1672, S4
1671, SPOS 
1671, S4
1670, SPOS 
1670, S4
1774, SPOS 
1774, S5
1666, SPOS 
1770, SPOS 
1722, SPOS 
1826, SPOS 
1667, SPOS 
1723, SPOS 
1668, SPOS 
1724, SPOS 
1683, SPOS 
2299, SPOS 
1687, SPOS 
1684, SPOS 
2300, SPOS 
1688, SPOS 
1685, SPOS 
2301, SPOS 
1689, SPOS 
1797, SPOS 
1797, S5
2429, SPOS 
2429, S4
1801, SPOS 
1801, S5
1728, SPOS 
1728, S5
1727, SPOS 
1727, S5
1726, SPOS 
1726, S5
1830, SPOS 
1830, S4
1742, SPOS 
1743, SPOS 
1854, SPOS 
1744, SPOS 
1777, SPOS 
1777, S5
1776, SPOS 
1776, S5
1897, SPOS 
1897, S5
1897, S4
1775, SPOS 
1775, S5
1771, SPOS 
1827, SPOS 
1772, SPOS 
1828, SPOS 
1773, SPOS 
1829, SPOS 
1893, SPOS 
1893, S5
1949, SPOS 
1949, S4
1794, SPOS 
1906, SPOS 
2426, SPOS 
2538, SPOS 
1798, SPOS 
1910, SPOS 
1795, SPOS 
1799, SPOS 
2427, SPOS 
1796, SPOS 
1800, SPOS 
2428, SPOS 
1833, SPOS 
1833, S4
1953, SPOS 
1953, S4
1953, S5
1832, SPOS 
1832, S4
1831, SPOS 
1831, S4
1855, SPOS 
1856, SPOS 
1856, S5
1896, SPOS 
1896, S4
1895, SPOS 
1895, S4
1895, S3
1891, SPOS 
1891, S3
1947, SPOS 
1947, S6
1892, SPOS 
1948, SPOS 
1907, SPOS 
2539, SPOS 
1911, SPOS 
1908, SPOS 
2540, SPOS 
1912, SPOS 
1908, S4
2540, S5
1912, S4
1952, SPOS 
1952, S5
1951, SPOS 
1951, S5
1951, S6
2078, SPOS 
2078, S3
2079, SPOS 
2080, SPOS 
2081, SPOS 
2209, SPOS 
2209, S4
2121, SPOS 
2121, S4
2120, SPOS 
2120, S4
2119, SPOS 
2119, S4
2118, SPOS 
2118, S4
2246, SPOS 
2246, S5
2114, SPOS 
2242, SPOS 
2178, SPOS 
2306, SPOS 
2115, SPOS 
2179, SPOS 
2116, SPOS 
2180, SPOS 
2117, SPOS 
2181, SPOS 
2138, SPOS 
2762, SPOS 
2138, S6
2762, S3
2139, SPOS 
2763, SPOS 
2142, SPOS 
2143, SPOS 
2142, S6
2140, SPOS 
2764, SPOS 
2144, SPOS 
2141, SPOS 
2765, SPOS 
2145, SPOS 
2269, SPOS 
2269, S5
2893, SPOS 
2893, S4
2273, SPOS 
2273, S5
2185, SPOS 
2185, S5
2184, SPOS 
2184, S5
2183, SPOS 
2183, S5
2182, SPOS 
2182, S5
2310, SPOS 
2310, S4
2206, SPOS 
2207, SPOS 
2302, SPOS 
2208, SPOS 
2249, SPOS 
2249, S5
2248, SPOS 
2248, S5
2361, SPOS 
2361, S5
2361, S4
2247, SPOS 
2247, S5
2243, SPOS 
2307, SPOS 
2244, SPOS 
2308, SPOS 
2245, SPOS 
2309, SPOS 
2357, SPOS 
2357, S5
2413, SPOS 
2413, S4
2266, SPOS 
2370, SPOS 
2890, SPOS 
2986, SPOS 
2270, SPOS 
2374, SPOS 
2267, SPOS 
2271, SPOS 
2891, SPOS 
2268, SPOS 
2272, SPOS 
2892, SPOS 
2313, SPOS 
2313, S4
2417, SPOS 
2417, S4
2417, S5
2312, SPOS 
2312, S4
2311, SPOS 
2311, S4
2303, SPOS 
2304, SPOS 
2305, SPOS 
2433, SPOS 
2433, S4
2360, SPOS 
2360, S4
2359, SPOS 
2359, S4
2358, SPOS 
2358, S4
2462, SPOS 
2462, S5
2354, SPOS 
2458, SPOS 
2410, SPOS 
2514, SPOS 
2355, SPOS 
2411, SPOS 
2356, SPOS 
2412, SPOS 
2371, SPOS 
2987, SPOS 
2375, SPOS 
2372, SPOS 
2988, SPOS 
2376, SPOS 
2373, SPOS 
2989, SPOS 
2377, SPOS 
2485, SPOS 
2485, S5
3117, SPOS 
3117, S4
2489, SPOS 
2489, S5
2416, SPOS 
2416, S5
2415, SPOS 
2415, S5
2414, SPOS 
2414, S5
2518, SPOS 
2518, S4
2430, SPOS 
2431, SPOS 
2542, SPOS 
2432, SPOS 
2465, SPOS 
2465, S5
2464, SPOS 
2464, S5
2585, SPOS 
2585, S5
2585, S4
2463, SPOS 
2463, S5
2459, SPOS 
2515, SPOS 
2460, SPOS 
2516, SPOS 
2461, SPOS 
2517, SPOS 
2581, SPOS 
2581, S5
2637, SPOS 
2637, S4
2482, SPOS 
2594, SPOS 
3114, SPOS 
3226, SPOS 
2486, SPOS 
2598, SPOS 
2483, SPOS 
2487, SPOS 
3115, SPOS 
2484, SPOS 
2488, SPOS 
3116, SPOS 
2521, SPOS 
2521, S4
2641, SPOS 
2641, S4
2641, S5
2520, SPOS 
2520, S4
2519, SPOS 
2519, S4
2543, SPOS 
2544, SPOS 
2544, S5
2584, SPOS 
2584, S4
2583, SPOS 
2583, S4
2583, S3
2579, SPOS 
2579, S3
2635, SPOS 
2635, S6
2580, SPOS 
2636, SPOS 
2595, SPOS 
3227, SPOS 
2599, SPOS 
2596, SPOS 
3228, SPOS 
2600, SPOS 
2596, S4
3228, S5
2600, S4
2640, SPOS 
2640, S5
2639, SPOS 
2639, S5
2639, S6
2766, SPOS 
2766, S3
2767, SPOS 
2768, SPOS 
2769, SPOS 
2897, SPOS 
2897, S4
2809, SPOS 
2809, S4
2808, SPOS 
2808, S4
2807, SPOS 
2807, S4
2806, SPOS 
2806, S4
2934, SPOS 
2934, S5
2802, SPOS 
2930, SPOS 
2866, SPOS 
2994, SPOS 
2803, SPOS 
2867, SPOS 
2804, SPOS 
2868, SPOS 
2805, SPOS 
2869, SPOS 
2826, SPOS 
3450, SPOS 
2826, S6
3450, S3
2827, SPOS 
3451, SPOS 
2830, SPOS 
2831, SPOS 
2830, S6
2828, SPOS 
3452, SPOS 
2832, SPOS 
2829, SPOS 
3453, SPOS 
2833, SPOS 
2957, SPOS 
2957, S5
3581, SPOS 
3581, S4
2961, SPOS 
2961, S5
2873, SPOS 
2873, S5
2872, SPOS 
2872, S5
2871, SPOS 
2871, S5
2870, SPOS 
2870, S5
2998, SPOS 
2998, S4
2894, SPOS 
2895, SPOS 
2990, SPOS 
2896, SPOS 
2937, SPOS 
2937, S5
2936, SPOS 
2936, S5
3049, SPOS 
3049, S5
3049, S4
2935, SPOS 
2935, S5
2931, SPOS 
2995, SPOS 
2932, SPOS 
2996, SPOS 
2933, SPOS 
2997, SPOS 
3045, SPOS 
3045, S5
3101, SPOS 
3101, S4
2954, SPOS 
3058, SPOS 
3578, SPOS 
3674, SPOS 
2958, SPOS 
3062, SPOS 
2955, SPOS 
2959, SPOS 
3579, SPOS 
2956, SPOS 
2960, SPOS 
3580, SPOS 
3001, SPOS 
3001, S4
3105, SPOS 
3105, S4
3105, S5
3000, SPOS 
3000, S4
2999, SPOS 
2999, S4
2991, SPOS 
2992, SPOS 
2993, SPOS 
3121, SPOS 
3121, S4
3048, SPOS 
3048, S4
3047, SPOS 
3047, S4
3046, SPOS 
3046, S4
3150, SPOS 
3150, S5
3042, SPOS 
3146, SPOS 
3098, SPOS 
3202, SPOS 
3043, SPOS 
3099, SPOS 
3044, SPOS 
3100, SPOS 
3059, SPOS 
3675, SPOS 
3063, SPOS 
3060, SPOS 
3676, SPOS 
3064, SPOS 
3061, SPOS 
3677, SPOS 
3065, SPOS 
3173, SPOS 
3173, S5
3805, SPOS 
3805, S4
3177, SPOS 
3177, S5
3104, SPOS 
3104, S5
3103, SPOS 
3103, S5
3102, SPOS 
3102, S5
3206, SPOS 
3206, S4
3118, SPOS 
3119, SPOS 
3230, SPOS 
3120, SPOS 
3153, SPOS 
3153, S5
3152, SPOS 
3152, S5
3273, SPOS 
3273, S5
3273, S4
3151, SPOS 
3151, S5
3147, SPOS 
3203, SPOS 
3148, SPOS 
3204, SPOS 
3149, SPOS 
3205, SPOS 
3269, SPOS 
3269, S5
3325, SPOS 
3325, S4
3170, SPOS 
3282, SPOS 
3802, SPOS 
3914, SPOS 
3174, SPOS 
3286, SPOS 
3171, SPOS 
3175, SPOS 
3803, SPOS 
3172, SPOS 
3176, SPOS 
3804, SPOS 
3209, SPOS 
3209, S4
3329, SPOS 
3329, S4
3329, S5
3208, SPOS 
3208, S4
3207, SPOS 
3207, S4
3231, SPOS 
3232, SPOS 
3232, S5
3272, SPOS 
3272, S4
3271, SPOS 
3271, S4
3271, S3
3267, SPOS 
3267, S3
3323, SPOS 
3323, S6
3268, SPOS 
3324, SPOS 
3283, SPOS 
3915, SPOS 
3287, SPOS 
3284, SPOS 
3916, SPOS 
3288, SPOS 
3284, S4
3916, S5
3288, S4
3328, SPOS 
3328, S5
3327, SPOS 
3327, S5
3327, S6
3454, SPOS 
3454, S3
3455, SPOS 
3456, SPOS 
3457, SPOS 
3585, SPOS 
3585, S4
3497, SPOS 
3497, S4
3496, SPOS 
3496, S4
3495, SPOS 
3495, S4
3494, SPOS 
3494, S4
3622, SPOS 
3622, S5
3490, SPOS 
3618, SPOS 
3554, SPOS 
3682, SPOS 
3491, SPOS 
3555, SPOS 
3492, SPOS 
3556, SPOS 
3493, SPOS 
3557, SPOS 
3514, SPOS 
4138, SPOS 
3514, S6
4138, S3
3515, SPOS 
4139, SPOS 
3518, SPOS 
3519, SPOS 
3518, S6
3516, SPOS 
4140, SPOS 
3520, SPOS 
3517, SPOS 
4141, SPOS 
3521, SPOS 
3645, SPOS 
3645, S5
4269, SPOS 
4269, S4
3649, SPOS 
3649, S5
3561, SPOS 
3561, S5
3560, SPOS 
3560, S5
3559, SPOS 
3559, S5
3558, SPOS 
3558, S5
3686, SPOS 
3686, S4
3582, SPOS 
3583, SPOS 
3678, SPOS 
3584, SPOS 
3625, SPOS 
3625, S5
3624, SPOS 
3624, S5
3737, SPOS 
3737, S5
3737, S4
3623, SPOS 
3623, S5
3619, SPOS 
3683, SPOS 
3620, SPOS 
3684, SPOS 
3621, SPOS 
3685, SPOS 
3733, SPOS 
3733, S5
3789, SPOS 
3789, S4
3642, SPOS 
3746, SPOS 
4266, SPOS 
4362, SPOS 
3646, SPOS 
3750, SPOS 
3643, SPOS 
3647, SPOS 
4267, SPOS 
3644, SPOS 
3648, SPOS 
4268, SPOS 
3689, SPOS 
3689, S4
3793, SPOS 
3793, S4
3793, S5
3688, SPOS 
3688, S4
3687, SPOS 
3687, S4
3679, SPOS 
3680, SPOS 
3681, SPOS 
3809, SPOS 
3809, S4
3736, SPOS 
3736, S4
3735, SPOS 
3735, S4
3734, SPOS 
3734, S4
3838, SPOS 
3838, S5
3730, SPOS 
3834, SPOS 
3786, SPOS 
3890, SPOS 
3731, SPOS 
3787, SPOS 
3732, SPOS 
3788, SPOS 
3747, SPOS 
4363, SPOS 
3751, SPOS 
3748, SPOS 
4364, SPOS 
3752, SPOS 
3749, SPOS 
4365, SPOS 
3753, SPOS 
3861, SPOS 
3861, S5
4493, SPOS 
4493, S4
3865, SPOS 
3865, S5
3792, SPOS 
3792, S5
3791, SPOS 
3791, S5
3790, SPOS 
3790, S5
3894, SPOS 
3894, S4
3806, SPOS 
3807, SPOS 
3918, SPOS 
3808, SPOS 
3841, SPOS 
3841, S5
3840, SPOS 
3840, S5
3961, SPOS 
3961, S5
3961, S4
3839, SPOS 
3839, S5
3835, SPOS 
3891, SPOS 
3836, SPOS 
3892, SPOS 
3837, SPOS 
3893, SPOS 
3957, SPOS 
3957, S5
4013, SPOS 
4013, S4
3858, SPOS 
3970, SPOS 
4490, SPOS 
4602, SPOS 
3862, SPOS 
3974, SPOS 
3859, SPOS 
3863, SPOS 
4491, SPOS 
3860, SPOS 
3864, SPOS 
4492, SPOS 
3897, SPOS 
3897, S4
4017, SPOS 
4017, S4
4017, S5
3896, SPOS 
3896, S4
3895, SPOS 
3895, S4
3919, SPOS 
3920, SPOS 
3920, S5
3960, SPOS 
3960, S4
3959, SPOS 
3959, S4
3959, S3
3955, SPOS 
3955, S3
4011, SPOS 
4011, S6
3956, SPOS 
4012, SPOS 
3971, SPOS 
4603, SPOS 
3975, SPOS 
3972, SPOS 
4604, SPOS 
3976, SPOS 
3972, S4
4604, S5
3976, S4
4016, SPOS 
4016, S5
4015, SPOS 
4015, S5
4015, S6
4142, SPOS 
4142, S3
4143, SPOS 
4144, SPOS 
4145, SPOS 
4273, SPOS 
4273, S4
4185, SPOS 
4185, S4
4184, SPOS 
4184, S4
4183, SPOS 
4183, S4
4182, SPOS 
4182, S4
4310, SPOS 
4310, S5
4178, SPOS 
4306, SPOS 
4242, SPOS 
4370, SPOS 
4179, SPOS 
4243, SPOS 
4180, SPOS 
4244, SPOS 
4181, SPOS 
4245, SPOS 
4249, SPOS 
4249, S6
4242, S5
4243, S5
4370, S4
4244, S5
4270, SPOS 
4271, SPOS 
4366, SPOS 
4272, SPOS 
4313, SPOS 
4313, S5
4312, SPOS 
4312, S5
4425, SPOS 
4425, S5
4425, S4
4311, SPOS 
4311, S5
4307, SPOS 
4371, SPOS 
4308, SPOS 
4372, SPOS 
4309, SPOS 
4373, SPOS 
4421, SPOS 
4421, S5
4477, SPOS 
4477, S4
4377, SPOS 
4481, SPOS 
4481, S4
4377, S3
4367, SPOS 
4368, SPOS 
4369, SPOS 
4497, SPOS 
4497, S4
4424, SPOS 
4424, S4
4423, SPOS 
4423, S4
4422, SPOS 
4422, S4
4526, SPOS 
4526, S5
4371, S4
4372, S4
4418, SPOS 
4522, SPOS 
4474, SPOS 
4578, SPOS 
4419, SPOS 
4475, SPOS 
4420, SPOS 
4476, SPOS 
4481, S6
4474, S5
4475, S5
4578, S4
4476, S5
4494, SPOS 
4495, SPOS 
4606, SPOS 
4496, SPOS 
4529, SPOS 
4529, S5
4528, SPOS 
4528, S5
4649, SPOS 
4649, S5
4649, S4
4527, SPOS 
4527, S5
4523, SPOS 
4579, SPOS 
4524, SPOS 
4580, SPOS 
4525, SPOS 
4581, SPOS 
4645, SPOS 
4645, S5
4701, SPOS 
4701, S4
4585, SPOS 
4705, SPOS 
4705, S4
4585, S3
4579, S4
4580, S4
4607, SPOS 
4608, SPOS 
4608, S5
4648, SPOS 
4648, S4
4647, SPOS 
4647, S4
4647, S3
4643, SPOS 
4643, S3
4699, SPOS 
4699, S6
4644, SPOS 
4700, SPOS 
4705, S6
4699, S5
4700, S5
** Surfaces based on cyl1
*SURFACE, NAME=Scyl1
4707, SPOS 
4707, S3
4707, S6
4717, SPOS 
4717, S3
4708, SPOS 
4718, SPOS 
4708, S6
4709, SPOS 
4719, SPOS 
4709, S6
4710, SPOS 
4720, SPOS 
4710, S6
4711, SPOS 
4721, SPOS 
4711, S6
4712, SPOS 
4722, SPOS 
4712, S6
4713, SPOS 
4723, SPOS 
4713, S6
4714, SPOS 
4724, SPOS 
4714, S6
4715, SPOS 
4725, SPOS 
4715, S6
4716, SPOS 
4726, SPOS 
4716, S6
4716, S5
4726, S5
4727, SPOS 
4727, S3
4728, SPOS 
4729, SPOS 
4730, SPOS 
4731, SPOS 
4732, SPOS 
4733, SPOS 
4734, SPOS 
4735, SPOS 
4736, SPOS 
4736, S5
4737, SPOS 
4737, S3
4738, SPOS 
4739, SPOS 
4740, SPOS 
4741, SPOS 
4742, SPOS 
4743, SPOS 
4744, SPOS 
4745, SPOS 
4746, SPOS 
4746, S5
4747, SPOS 
4747, S3
4748, SPOS 
4749, SPOS 
4750, SPOS 
4751, SPOS 
4752, SPOS 
4753, SPOS 
4754, SPOS 
4755, SPOS 
4756, SPOS 
4756, S5
4757, SPOS 
4757, S3
4758, SPOS 
4759, SPOS 
4760, SPOS 
4761, SPOS 
4762, SPOS 
4763, SPOS 
4764, SPOS 
4765, SPOS 
4766, SPOS 
4766, S5
4767, SPOS 
4767, S3
4768, SPOS 
4769, SPOS 
4770, SPOS 
4771, SPOS 
4772, SPOS 
4773, SPOS 
4774, SPOS 
4775, SPOS 
4776, SPOS 
4776, S5
4777, SPOS 
4777, S3
4778, SPOS 
4779, SPOS 
4780, SPOS 
4781, SPOS 
4782, SPOS 
4783, SPOS 
4784, SPOS 
4785, SPOS 
4786, SPOS 
4786, S5
4787, SPOS 
4787, S3
4788, SPOS 
4789, SPOS 
4790, SPOS 
4791, SPOS 
4792, SPOS 
4793, SPOS 
4794, SPOS 
4795, SPOS 
4796, SPOS 
4796, S5
4797, SPOS 
4797, S3
4798, SPOS 
4799, SPOS 
4800, SPOS 
4801, SPOS 
4802, SPOS 
4803, SPOS 
4804, SPOS 
4805, SPOS 
4806, SPOS 
4806, S5
4807, SPOS 
4807, S3
4808, SPOS 
4809, SPOS 
4810, SPOS 
4811, SPOS 
4812, SPOS 
4813, SPOS 
4814, SPOS 
4815, SPOS 
4816, SPOS 
4816, S5
4817, SPOS 
4817, S3
4818, SPOS 
4819, SPOS 
4820, SPOS 
4821, SPOS 
4822, SPOS 
4823, SPOS 
4824, SPOS 
4825, SPOS 
4826, SPOS 
4826, S5
4827, SPOS 
4827, S3
4828, SPOS 
4829, SPOS 
4830, SPOS 
4831, SPOS 
4832, SPOS 
4833, SPOS 
4834, SPOS 
4835, SPOS 
4836, SPOS 
4836, S5
4837, SPOS 
4837, S3
4838, SPOS 
4839, SPOS 
4840, SPOS 
4841, SPOS 
4842, SPOS 
4843, SPOS 
4844, SPOS 
4845, SPOS 
4846, SPOS 
4846, S5
4847, SPOS 
4847, S3
4848, SPOS 
4849, SPOS 
4850, SPOS 
4851, SPOS 
4852, SPOS 
4853, SPOS 
4854, SPOS 
4855, SPOS 
4856, SPOS 
4856, S5
4857, SPOS 
4857, S3
4858, SPOS 
4859, SPOS 
4860, SPOS 
4861, SPOS 
4862, SPOS 
4863, SPOS 
4864, SPOS 
4865, SPOS 
4866, SPOS 
4866, S5
4867, SPOS 
4867, S3
4868, SPOS 
4869, SPOS 
4870, SPOS 
4871, SPOS 
4872, SPOS 
4873, SPOS 
4874, SPOS 
4875, SPOS 
4876, SPOS 
4876, S5
4877, SPOS 
4877, S3
4878, SPOS 
4879, SPOS 
4880, SPOS 
4881, SPOS 
4882, SPOS 
4883, SPOS 
4884, SPOS 
4885, SPOS 
4886, SPOS 
4886, S5
4887, SPOS 
4887, S3
4888, SPOS 
4889, SPOS 
4890, SPOS 
4891, SPOS 
4892, SPOS 
4893, SPOS 
4894, SPOS 
4895, SPOS 
4896, SPOS 
4896, S5
4897, SPOS 
4897, S3
4898, SPOS 
4899, SPOS 
4900, SPOS 
4901, SPOS 
4902, SPOS 
4903, SPOS 
4904, SPOS 
4905, SPOS 
4906, SPOS 
4906, S5
4907, SPOS 
4907, S3
4908, SPOS 
4909, SPOS 
4910, SPOS 
4911, SPOS 
4912, SPOS 
4913, SPOS 
4914, SPOS 
4915, SPOS 
4916, SPOS 
4916, S5
4917, SPOS 
4917, S3
4918, SPOS 
4919, SPOS 
4920, SPOS 
4921, SPOS 
4922, SPOS 
4923, SPOS 
4924, SPOS 
4925, SPOS 
4926, SPOS 
4926, S5
4927, SPOS 
4927, S3
4928, SPOS 
4929, SPOS 
4930, SPOS 
4931, SPOS 
4932, SPOS 
4933, SPOS 
4934, SPOS 
4935, SPOS 
4936, SPOS 
4936, S5
4937, SPOS 
4937, S3
4938, SPOS 
4939, SPOS 
4940, SPOS 
4941, SPOS 
4942, SPOS 
4943, SPOS 
4944, SPOS 
4945, SPOS 
4946, SPOS 
4946, S5
4947, SPOS 
4947, S3
4948, SPOS 
4949, SPOS 
4950, SPOS 
4951, SPOS 
4952, SPOS 
4953, SPOS 
4954, SPOS 
4955, SPOS 
4956, SPOS 
4956, S5
4957, SPOS 
4957, S3
4958, SPOS 
4959, SPOS 
4960, SPOS 
4961, SPOS 
4962, SPOS 
4963, SPOS 
4964, SPOS 
4965, SPOS 
4966, SPOS 
4966, S5
4967, SPOS 
4967, S3
4968, SPOS 
4969, SPOS 
4970, SPOS 
4971, SPOS 
4972, SPOS 
4973, SPOS 
4974, SPOS 
4975, SPOS 
4976, SPOS 
4976, S5
4977, SPOS 
4977, S3
4978, SPOS 
4979, SPOS 
4980, SPOS 
4981, SPOS 
4982, SPOS 
4983, SPOS 
4984, SPOS 
4985, SPOS 
4986, SPOS 
4986, S5
4987, SPOS 
4987, S3
4988, SPOS 
4989, SPOS 
4990, SPOS 
4991, SPOS 
4992, SPOS 
4993, SPOS 
4994, SPOS 
4995, SPOS 
4996, SPOS 
4996, S5
4997, SPOS 
4997, S3
4998, SPOS 
4999, SPOS 
5000, SPOS 
5001, SPOS 
5002, SPOS 
5003, SPOS 
5004, SPOS 
5005, SPOS 
5006, SPOS 
5006, S5
5007, SPOS 
5007, S3
5008, SPOS 
5009, SPOS 
5010, SPOS 
5011, SPOS 
5012, SPOS 
5013, SPOS 
5014, SPOS 
5015, SPOS 
5016, SPOS 
5016, S5
5017, SPOS 
5017, S3
5018, SPOS 
5019, SPOS 
5020, SPOS 
5021, SPOS 
5022, SPOS 
5023, SPOS 
5024, SPOS 
5025, SPOS 
5026, SPOS 
5026, S5
5027, SPOS 
5027, S3
5028, SPOS 
5029, SPOS 
5030, SPOS 
5031, SPOS 
5032, SPOS 
5033, SPOS 
5034, SPOS 
5035, SPOS 
5036, SPOS 
5036, S5
5037, SPOS 
5037, S3
5038, SPOS 
5039, SPOS 
5040, SPOS 
5041, SPOS 
5042, SPOS 
5043, SPOS 
5044, SPOS 
5045, SPOS 
5046, SPOS 
5046, S5
5047, SPOS 
5047, S3
5048, SPOS 
5049, SPOS 
5050, SPOS 
5051, SPOS 
5052, SPOS 
5053, SPOS 
5054, SPOS 
5055, SPOS 
5056, SPOS 
5056, S5
5057, SPOS 
5057, S3
5058, SPOS 
5059, SPOS 
5060, SPOS 
5061, SPOS 
5062, SPOS 
5063, SPOS 
5064, SPOS 
5065, SPOS 
5066, SPOS 
5066, S5
5067, SPOS 
5067, S3
5068, SPOS 
5069, SPOS 
5070, SPOS 
5071, SPOS 
5072, SPOS 
5073, SPOS 
5074, SPOS 
5075, SPOS 
5076, SPOS 
5076, S5
5077, SPOS 
5077, S3
5078, SPOS 
5079, SPOS 
5080, SPOS 
5081, SPOS 
5082, SPOS 
5083, SPOS 
5084, SPOS 
5085, SPOS 
5086, SPOS 
5086, S5
5087, SPOS 
5087, S3
5088, SPOS 
5089, SPOS 
5090, SPOS 
5091, SPOS 
5092, SPOS 
5093, SPOS 
5094, SPOS 
5095, SPOS 
5096, SPOS 
5096, S5
5097, SPOS 
5097, S3
5098, SPOS 
5099, SPOS 
5100, SPOS 
5101, SPOS 
5102, SPOS 
5103, SPOS 
5104, SPOS 
5105, SPOS 
5106, SPOS 
5106, S5
5097, S4
5098, S4
5099, S4
5100, S4
5101, S4
5102, S4
5103, S4
5104, S4
5105, S4
5106, S4
** Surfaces based on cyl2
*SURFACE, NAME=Scyl2
5108, SPOS 
5108, S3
5108, S6
5118, SPOS 
5118, S3
5109, SPOS 
5119, SPOS 
5109, S6
5110, SPOS 
5120, SPOS 
5110, S6
5111, SPOS 
5121, SPOS 
5111, S6
5112, SPOS 
5122, SPOS 
5112, S6
5113, SPOS 
5123, SPOS 
5113, S6
5114, SPOS 
5124, SPOS 
5114, S6
5115, SPOS 
5125, SPOS 
5115, S6
5116, SPOS 
5126, SPOS 
5116, S6
5117, SPOS 
5127, SPOS 
5117, S6
5117, S5
5127, S5
5128, SPOS 
5128, S3
5129, SPOS 
5130, SPOS 
5131, SPOS 
5132, SPOS 
5133, SPOS 
5134, SPOS 
5135, SPOS 
5136, SPOS 
5137, SPOS 
5137, S5
5138, SPOS 
5138, S3
5139, SPOS 
5140, SPOS 
5141, SPOS 
5142, SPOS 
5143, SPOS 
5144, SPOS 
5145, SPOS 
5146, SPOS 
5147, SPOS 
5147, S5
5148, SPOS 
5148, S3
5149, SPOS 
5150, SPOS 
5151, SPOS 
5152, SPOS 
5153, SPOS 
5154, SPOS 
5155, SPOS 
5156, SPOS 
5157, SPOS 
5157, S5
5158, SPOS 
5158, S3
5159, SPOS 
5160, SPOS 
5161, SPOS 
5162, SPOS 
5163, SPOS 
5164, SPOS 
5165, SPOS 
5166, SPOS 
5167, SPOS 
5167, S5
5168, SPOS 
5168, S3
5169, SPOS 
5170, SPOS 
5171, SPOS 
5172, SPOS 
5173, SPOS 
5174, SPOS 
5175, SPOS 
5176, SPOS 
5177, SPOS 
5177, S5
5178, SPOS 
5178, S3
5179, SPOS 
5180, SPOS 
5181, SPOS 
5182, SPOS 
5183, SPOS 
5184, SPOS 
5185, SPOS 
5186, SPOS 
5187, SPOS 
5187, S5
5188, SPOS 
5188, S3
5189, SPOS 
5190, SPOS 
5191, SPOS 
5192, SPOS 
5193, SPOS 
5194, SPOS 
5195, SPOS 
5196, SPOS 
5197, SPOS 
5197, S5
5198, SPOS 
5198, S3
5199, SPOS 
5200, SPOS 
5201, SPOS 
5202, SPOS 
5203, SPOS 
5204, SPOS 
5205, SPOS 
5206, SPOS 
5207, SPOS 
5207, S5
5208, SPOS 
5208, S3
5209, SPOS 
5210, SPOS 
5211, SPOS 
5212, SPOS 
5213, SPOS 
5214, SPOS 
5215, SPOS 
5216, SPOS 
5217, SPOS 
5217, S5
5218, SPOS 
5218, S3
5219, SPOS 
5220, SPOS 
5221, SPOS 
5222, SPOS 
5223, SPOS 
5224, SPOS 
5225, SPOS 
5226, SPOS 
5227, SPOS 
5227, S5
5228, SPOS 
5228, S3
5229, SPOS 
5230, SPOS 
5231, SPOS 
5232, SPOS 
5233, SPOS 
5234, SPOS 
5235, SPOS 
5236, SPOS 
5237, SPOS 
5237, S5
5238, SPOS 
5238, S3
5239, SPOS 
5240, SPOS 
5241, SPOS 
5242, SPOS 
5243, SPOS 
5244, SPOS 
5245, SPOS 
5246, SPOS 
5247, SPOS 
5247, S5
5248, SPOS 
5248, S3
5249, SPOS 
5250, SPOS 
5251, SPOS 
5252, SPOS 
5253, SPOS 
5254, SPOS 
5255, SPOS 
5256, SPOS 
5257, SPOS 
5257, S5
5258, SPOS 
5258, S3
5259, SPOS 
5260, SPOS 
5261, SPOS 
5262, SPOS 
5263, SPOS 
5264, SPOS 
5265, SPOS 
5266, SPOS 
5267, SPOS 
5267, S5
5268, SPOS 
5268, S3
5269, SPOS 
5270, SPOS 
5271, SPOS 
5272, SPOS 
5273, SPOS 
5274, SPOS 
5275, SPOS 
5276, SPOS 
5277, SPOS 
5277, S5
5278, SPOS 
5278, S3
5279, SPOS 
5280, SPOS 
5281, SPOS 
5282, SPOS 
5283, SPOS 
5284, SPOS 
5285, SPOS 
5286, SPOS 
5287, SPOS 
5287, S5
5288, SPOS 
5288, S3
5289, SPOS 
5290, SPOS 
5291, SPOS 
5292, SPOS 
5293, SPOS 
5294, SPOS 
5295, SPOS 
5296, SPOS 
5297, SPOS 
5297, S5
5298, SPOS 
5298, S3
5299, SPOS 
5300, SPOS 
5301, SPOS 
5302, SPOS 
5303, SPOS 
5304, SPOS 
5305, SPOS 
5306, SPOS 
5307, SPOS 
5307, S5
5308, SPOS 
5308, S3
5309, SPOS 
5310, SPOS 
5311, SPOS 
5312, SPOS 
5313, SPOS 
5314, SPOS 
5315, SPOS 
5316, SPOS 
5317, SPOS 
5317, S5
5318, SPOS 
5318, S3
5319, SPOS 
5320, SPOS 
5321, SPOS 
5322, SPOS 
5323, SPOS 
5324, SPOS 
5325, SPOS 
5326, SPOS 
5327, SPOS 
5327, S5
5328, SPOS 
5328, S3
5329, SPOS 
5330, SPOS 
5331, SPOS 
5332, SPOS 
5333, SPOS 
5334, SPOS 
5335, SPOS 
5336, SPOS 
5337, SPOS 
5337, S5
5338, SPOS 
5338, S3
5339, SPOS 
5340, SPOS 
5341, SPOS 
5342, SPOS 
5343, SPOS 
5344, SPOS 
5345, SPOS 
5346, SPOS 
5347, SPOS 
5347, S5
5348, SPOS 
5348, S3
5349, SPOS 
5350, SPOS 
5351, SPOS 
5352, SPOS 
5353, SPOS 
5354, SPOS 
5355, SPOS 
5356, SPOS 
5357, SPOS 
5357, S5
5358, SPOS 
5358, S3
5359, SPOS 
5360, SPOS 
5361, SPOS 
5362, SPOS 
5363, SPOS 
5364, SPOS 
5365, SPOS 
5366, SPOS 
5367, SPOS 
5367, S5
5368, SPOS 
5368, S3
5369, SPOS 
5370, SPOS 
5371, SPOS 
5372, SPOS 
5373, SPOS 
5374, SPOS 
5375, SPOS 
5376, SPOS 
5377, SPOS 
5377, S5
5378, SPOS 
5378, S3
5379, SPOS 
5380, SPOS 
5381, SPOS 
5382, SPOS 
5383, SPOS 
5384, SPOS 
5385, SPOS 
5386, SPOS 
5387, SPOS 
5387, S5
5388, SPOS 
5388, S3
5389, SPOS 
5390, SPOS 
5391, SPOS 
5392, SPOS 
5393, SPOS 
5394, SPOS 
5395, SPOS 
5396, SPOS 
5397, SPOS 
5397, S5
5398, SPOS 
5398, S3
5399, SPOS 
5400, SPOS 
5401, SPOS 
5402, SPOS 
5403, SPOS 
5404, SPOS 
5405, SPOS 
5406, SPOS 
5407, SPOS 
5407, S5
5408, SPOS 
5408, S3
5409, SPOS 
5410, SPOS 
5411, SPOS 
5412, SPOS 
5413, SPOS 
5414, SPOS 
5415, SPOS 
5416, SPOS 
5417, SPOS 
5417, S5
5418, SPOS 
5418, S3
5419, SPOS 
5420, SPOS 
5421, SPOS 
5422, SPOS 
5423, SPOS 
5424, SPOS 
5425, SPOS 
5426, SPOS 
5427, SPOS 
5427, S5
5428, SPOS 
5428, S3
5429, SPOS 
5430, SPOS 
5431, SPOS 
5432, SPOS 
5433, SPOS 
5434, SPOS 
5435, SPOS 
5436, SPOS 
5437, SPOS 
5437, S5
5438, SPOS 
5438, S3
5439, SPOS 
5440, SPOS 
5441, SPOS 
5442, SPOS 
5443, SPOS 
5444, SPOS 
5445, SPOS 
5446, SPOS 
5447, SPOS 
5447, S5
5448, SPOS 
5448, S3
5449, SPOS 
5450, SPOS 
5451, SPOS 
5452, SPOS 
5453, SPOS 
5454, SPOS 
5455, SPOS 
5456, SPOS 
5457, SPOS 
5457, S5
5458, SPOS 
5458, S3
5459, SPOS 
5460, SPOS 
5461, SPOS 
5462, SPOS 
5463, SPOS 
5464, SPOS 
5465, SPOS 
5466, SPOS 
5467, SPOS 
5467, S5
5468, SPOS 
5468, S3
5469, SPOS 
5470, SPOS 
5471, SPOS 
5472, SPOS 
5473, SPOS 
5474, SPOS 
5475, SPOS 
5476, SPOS 
5477, SPOS 
5477, S5
5478, SPOS 
5478, S3
5479, SPOS 
5480, SPOS 
5481, SPOS 
5482, SPOS 
5483, SPOS 
5484, SPOS 
5485, SPOS 
5486, SPOS 
5487, SPOS 
5487, S5
5488, SPOS 
5488, S3
5489, SPOS 
5490, SPOS 
5491, SPOS 
5492, SPOS 
5493, SPOS 
5494, SPOS 
5495, SPOS 
5496, SPOS 
5497, SPOS 
5497, S5
5498, SPOS 
5498, S3
5499, SPOS 
5500, SPOS 
5501, SPOS 
5502, SPOS 
5503, SPOS 
5504, SPOS 
5505, SPOS 
5506, SPOS 
5507, SPOS 
5507, S5
5498, S4
5499, S4
5500, S4
5501, S4
5502, S4
5503, S4
5504, S4
5505, S4
5506, S4
5507, S4
**spring Element
*element,type=spring1,elset=feder
 1,1
*spring,elset=feder
 3
 1.
** constraints
*boundary
** BOUNDARY based on xsym
1, 1, , 
2, 1, , 
5, 1, , 
7, 1, , 
9, 1, , 
16, 1, , 
19, 1, , 
21, 1, , 
23, 1, , 
25, 1, , 
56, 1, , 
58, 1, , 
60, 1, , 
142, 1, , 
145, 1, , 
147, 1, , 
149, 1, , 
154, 1, , 
155, 1, , 
158, 1, , 
** ... 26 like lines cut
** BOUNDARY based on ysym
1, 2, , 
4, 2, , 
12, 2, , 
16, 2, , 
17, 2, , 
26, 2, , 
39, 2, , 
40, 2, , 
53, 2, , 
54, 2, , 
55, 2, , 
70, 2, , 
71, 2, , 
72, 2, , 
73, 2, , 
82, 2, , 
87, 2, , 
88, 2, , 
89, 2, , 
90, 2, , 
** ... 277 like lines cut
**Nxsym,1,3
Ncyl1,1,3
Ncyl2,1,3
** material definition
*material, name=alu
*elastic
72000,0.3
*plastic
160,0
180,0.01
300,0.1
500,1
*density
2.7e9
** material and thickness assignment to bodies
*shell section, elset=Elower, material=alu,offset=-0.5
1
*shell section, elset=Eupper, material=alu,offset=-0.5
1
*shell section, elset=Esingle, material=alu
0.1
*shell section, elset=Edouble, material=alu
0.1
** cylinder shells
*shell section, elset=Ecyl1, material=alu, offset=0.5
1
*shell section, elset=Ecyl2, material=alu, offset=0.5
1
** contact definitions
*surface interaction, name=tool
*surface behavior, pressure-overclosure=linear
100000
***friction
**0.1,10000
*contact pair, interaction=tool, type=surface to surface
Supper,Scyl1,
*contact pair, interaction=tool, type=surface to surface
Slower,Scyl2
*step,nlgeom, inc=1000
*static
0.01,1,0.0000000001,0.01
**dload
** Edouble,P,0.01
** Esingle,P,0.01
*controls, parameters=field
** ran ,can,qa0 ,qau,rap,ea,cae,ral
   10.,0.1,100.,100.,100.
**controls, parameters=time incrementation
**15,,5
**0.25,
*boundary
Ncyl1,3,3,-5
*node file, lastiterations
U
*el file
S,PE
** *contact file
** CDIS
*node print, nset=Ncyl1, totals=only
RF
*node print, nset=Nmon1
U
*node print, nset=Nmonc
U
*end step
