**Leaf Spring
**Penalty contact (node-to-surface)
**Static analysis
**Analysis of a quarter model, expanded in postprocessing
**http://github.com/mkraska/CalculiX-Examples/tree/master/Contact/Leafspring
**Created by Martin Kraska, 
**Brandenburg University of Applied Sciences
**<img src="sxx.png">

*NODE, NSET=Nall
       1,0.000000000000e+00,2.000000000000e+01,5.000000000000e+00
       2,0.000000000000e+00,2.000000000000e+01,0.000000000000e+00
       3,5.000000000000e+01,2.000000000000e+01,0.000000000000e+00
       4,5.000000000000e+01,2.000000000000e+01,5.000000000000e+00
       5,0.000000000000e+00,0.000000000000e+00,5.000000000000e+00
       6,0.000000000000e+00,0.000000000000e+00,0.000000000000e+00
       7,5.000000000000e+01,0.000000000000e+00,0.000000000000e+00
       8,5.000000000000e+01,0.000000000000e+00,5.000000000000e+00
       9,0.000000000000e+00,2.000000000000e+01,2.500000000000e+00
      10,2.500000000000e+01,2.000000000000e+01,0.000000000000e+00
      11,5.000000000000e+01,2.000000000000e+01,2.500000000000e+00
      12,2.500000000000e+01,2.000000000000e+01,5.000000000000e+00
      13,0.000000000000e+00,1.000000000000e+01,5.000000000000e+00
      14,0.000000000000e+00,1.000000000000e+01,0.000000000000e+00
      15,5.000000000000e+01,1.000000000000e+01,0.000000000000e+00
      16,5.000000000000e+01,1.000000000000e+01,5.000000000000e+00
      17,0.000000000000e+00,0.000000000000e+00,2.500000000000e+00
      18,2.500000000000e+01,0.000000000000e+00,0.000000000000e+00
      19,5.000000000000e+01,0.000000000000e+00,2.500000000000e+00
      20,2.500000000000e+01,0.000000000000e+00,5.000000000000e+00
** ... 340 like lines cut
*ELEMENT, TYPE=C3D20, ELSET=Eall
     1,     1,     2,     3,     4,     5,     6,     7,     8,     9,    10,
          11,    12,    17,    18,    19,    20,    13,    14,    15,    16
     2,    41,    42,    43,    44,    45,    46,    47,    48,    49,    50,
          51,    52,    57,    58,    59,    60,    53,    54,    55,    56
     3,    44,    43,    61,    62,    48,    47,    63,    64,    51,    65,
          66,    67,    59,    70,    71,    72,    56,    55,    68,    69
     4,    62,    61,    73,    74,    64,    63,    75,    76,    66,    77,
          78,    79,    71,    82,    83,    84,    69,    68,    80,    81
     5,   105,   106,   107,   108,   109,   110,   111,   112,   113,   114,
         115,   116,   121,   122,   123,   124,   117,   118,   119,   120
     6,   108,   107,   125,   126,   112,   111,   127,   128,   115,   129,
         130,   131,   123,   134,   135,   136,   120,   119,   132,   133
     7,   126,   125,   137,   138,   128,   127,   139,   140,   130,   141,
         142,   143,   135,   146,   147,   148,   133,   132,   144,   145
     8,   138,   137,   149,   150,   140,   139,   151,   152,   142,   153,
         154,   155,   147,   158,   159,   160,   145,   144,   156,   157
     9,   181,   182,   183,   184,   185,   186,   187,   188,   189,   190,
         191,   192,   197,   198,   199,   200,   193,   194,   195,   196
    10,   184,   183,   201,   202,   188,   187,   203,   204,   191,   205,
         206,   207,   199,   210,   211,   212,   196,   195,   208,   209
** ... 32 like lines cut
** Names based on support
*NSET,NSET=Nsupport 
449, 
451, 
456, 
** surface definitions
**surfaces include
** Surfaces based on top1
*SURFACE, NAME=Stop1
1, S6
** Surfaces based on bot1
*SURFACE, NAME=Sbot1
2, S4
3, S4
4, S4
** Surfaces based on top2
*SURFACE, NAME=Stop2
2, S6
3, S6
4, S6
** Surfaces based on bot2
*SURFACE, NAME=Sbot2
5, S4
6, S4
7, S4
8, S4
** Surfaces based on top3
*SURFACE, NAME=Stop3
5, S6
6, S6
7, S6
8, S6
** Surfaces based on bot3
*SURFACE, NAME=Sbot3
9, S4
10, S4
11, S4
12, S4
13, S4
** Surfaces based on top4
*SURFACE, NAME=Stop4
9, S6
10, S6
11, S6
12, S6
13, S6
** Surfaces based on bot4
*SURFACE, NAME=Sbot4
14, S4
15, S4
16, S4
17, S4
18, S4
19, S4
** Surfaces based on top5
*SURFACE, NAME=Stop5
14, S6
15, S6
16, S6
17, S6
18, S6
19, S6
** Surfaces based on bot5
*SURFACE, NAME=Sbot5
20, S4
21, S4
22, S4
23, S4
24, S4
25, S4
26, S4
*boundary
** BOUNDARY based on ysym
5, 2, , 
6, 2, , 
7, 2, , 
8, 2, , 
17, 2, , 
18, 2, , 
19, 2, , 
20, 2, , 
45, 2, , 
46, 2, , 
47, 2, , 
48, 2, , 
57, 2, , 
58, 2, , 
59, 2, , 
60, 2, , 
63, 2, , 
64, 2, , 
70, 2, , 
71, 2, , 
** ... 128 like lines cut
** BOUNDARY based on xsym
1, 1, , 
2, 1, , 
5, 1, , 
6, 1, , 
9, 1, , 
13, 1, , 
14, 1, , 
17, 1, , 
41, 1, , 
42, 1, , 
45, 1, , 
46, 1, , 
49, 1, , 
53, 1, , 
54, 1, , 
57, 1, , 
105, 1, , 
106, 1, , 
109, 1, , 
110, 1, , 
** ... 28 like lines cut
Nsupport,3
** material definition
*material, name=steel
*elastic
210000,0.3
** material assignment to bodies
*solid section, elset=Eall, material=steel
** contact definitions
*surface interaction, name=leaf
***surface behavior, pressure-overclosure=linear
**1e6
**surface behavior, pressure-overclosure=exponential
**0.02,100
*surface behavior, pressure-overclosure=linear
1000000,0.001,1
**surface behavior, pressure-overclosure=tied
**100000
**friction
**1,100
*contact pair, interaction=leaf, type=node to surface
**contact pairs
Stop1 , Sbot1
Stop2 , Sbot2
Stop3 , Sbot3
Stop4 , Sbot4
Stop5 , Sbot5
*step,nlgeom, inc=500
*controls, parameters=field
0.05,0.1,0.1,0.1,0.1
*static
0.0001,1
*boundary
** BOUNDARY based on load
1, 3, , 10
2, 3, , 10
5, 3, , 10
6, 3, , 10
9, 3, , 10
13, 3, , 10
14, 3, , 10
17, 3, , 10
41, 3, , 10
42, 3, , 10
45, 3, , 10
46, 3, , 10
49, 3, , 10
53, 3, , 10
54, 3, , 10
57, 3, , 10
105, 3, , 10
106, 3, , 10
109, 3, , 10
110, 3, , 10
** ... 28 like lines cut
*node file,
U
*el file, frequency=50
S
*contact file
CDIS
*node print, nset=Nsupport,totals=only
RF
*end step
