**Thermographic Testing
**Transient thermal analysis
**Thermal coupling between independent meshes by *equation
**Heat impulse applied using *amplitude
**http://github.com/mkraska/CalculiX-Examples/tree/master/Thermal/Thermografie
**Created by Martin Kraska, 
**Brandenburg University of Applied Sciences
**<img src="th.png">

*NODE, NSET=Nall
       1,5.000000000000e+01,5.000000000000e+01,0.000000000000e+00
       2,4.852941176471e+01,5.000000000000e+01,0.000000000000e+00
       3,4.852941176471e+01,5.000000000000e+01,-6.500000000000e-01
       4,5.000000000000e+01,5.000000000000e+01,-6.500000000000e-01
       5,5.000000000000e+01,4.852941176471e+01,0.000000000000e+00
       6,4.852941176471e+01,4.852941176471e+01,0.000000000000e+00
       7,4.852941176471e+01,4.852941176471e+01,-6.500000000000e-01
       8,5.000000000000e+01,4.852941176471e+01,-6.500000000000e-01
       9,4.852941176471e+01,5.000000000000e+01,-1.300000000000e+00
      10,5.000000000000e+01,5.000000000000e+01,-1.300000000000e+00
      11,4.852941176471e+01,4.852941176471e+01,-1.300000000000e+00
      12,5.000000000000e+01,4.852941176471e+01,-1.300000000000e+00
      13,5.000000000000e+01,4.705882352941e+01,0.000000000000e+00
      14,4.852941176471e+01,4.705882352941e+01,0.000000000000e+00
      15,4.852941176471e+01,4.705882352941e+01,-6.500000000000e-01
      16,5.000000000000e+01,4.705882352941e+01,-6.500000000000e-01
      17,4.852941176471e+01,4.705882352941e+01,-1.300000000000e+00
      18,5.000000000000e+01,4.705882352941e+01,-1.300000000000e+00
      19,5.000000000000e+01,4.558823529412e+01,0.000000000000e+00
      20,4.852941176471e+01,4.558823529412e+01,0.000000000000e+00
** ... 7600 like lines cut
*ELEMENT, TYPE=C3D8, ELSET=Eall
     1,     1,     2,     3,     4,     5,     6,     7,     8
     2,     4,     3,     9,    10,     8,     7,    11,    12
     3,     5,     6,     7,     8,    13,    14,    15,    16
     4,     8,     7,    11,    12,    16,    15,    17,    18
     5,    13,    14,    15,    16,    19,    20,    21,    22
     6,    16,    15,    17,    18,    22,    21,    23,    24
     7,    19,    20,    21,    22,    25,    26,    27,    28
     8,    22,    21,    23,    24,    28,    27,    29,    30
     9,    25,    26,    27,    28,    31,    32,    33,    34
    10,    28,    27,    29,    30,    34,    33,    35,    36
    11,    31,    32,    33,    34,    37,    38,    39,    40
    12,    34,    33,    35,    36,    40,    39,    41,    42
    13,    37,    38,    39,    40,    43,    44,    45,    46
    14,    40,    39,    41,    42,    46,    45,    47,    48
    15,    43,    44,    45,    46,    49,    50,    51,    52
    16,    46,    45,    47,    48,    52,    51,    53,    54
    17,    49,    50,    51,    52,    55,    56,    57,    58
    18,    52,    51,    53,    54,    58,    57,    59,    60
    19,    55,    56,    57,    58,    61,    62,    63,    64
    20,    58,    57,    59,    60,    64,    63,    65,    66
** ... 4716 like lines cut
** equations for tied thermomech contact
**include, input=depo123.equ
** areampc based on set depo indo
*EQUATION
5
7359,11,-1.000000000000
6727,11,0.076800004480
6832,11,0.883200003520
6835,11,0.036799992480
6730,11,0.003199999520
*EQUATION
5
7360,11,-1.000000000000
6727,11,0.729600013760
6832,11,0.230399994240
6835,11,0.009599997760
6730,11,0.030399994240
*EQUATION
5
7361,11,-1.000000000000
6730,11,0.079085716954
6835,11,0.909485695546
6838,11,0.010514300454
6733,11,0.000914287046
*EQUATION
5
7362,11,-1.000000000000
6730,11,0.751314281409
6835,11,0.237257131091
6838,11,0.002742860909
6733,11,0.008685726591
*EQUATION
5
7367,11,-1.000000000000
6730,11,0.001371427029
6835,11,0.015771409971
6838,11,0.904228586029
6733,11,0.078628576971
*EQUATION
5
7368,11,-1.000000000000
6730,11,0.013028556257
6835,11,0.004114280743
6838,11,0.235885711257
6733,11,0.746971451743
*EQUATION
5
7373,11,-1.000000000000
6733,11,0.003657141103
6838,11,0.042057120397
6841,11,0.877942875603
6736,11,0.076342862897
*EQUATION
5
7374,11,-1.000000000000
6733,11,0.034742839106
6838,11,0.010971422394
6841,11,0.229028569606
6736,11,0.725257168894
*EQUATION
5
7379,11,-1.000000000000
6736,11,0.005942859057
6841,11,0.068342875443
6844,11,0.851657120557
6739,11,0.074057144943
*EQUATION
5
7380,11,-1.000000000000
6736,11,0.056457158814
6841,11,0.017828575686
6844,11,0.222171416314
6739,11,0.703542849186
*EQUATION
5
7385,11,-1.000000000000
6739,11,0.008228573131
6844,11,0.094628585869
6847,11,0.825371410131
6742,11,0.071771430869
*EQUATION
5
7386,11,-1.000000000000
6739,11,0.078171441663
6844,11,0.024685717337
6847,11,0.215314274663
6742,11,0.681828566337
*EQUATION
5
7391,11,-1.000000000000
6742,11,0.010514287206
6847,11,0.120914296294
6850,11,0.799085699706
6745,11,0.069485716794
*EQUATION
5
7392,11,-1.000000000000
6742,11,0.099885724511
6847,11,0.031542858989
6850,11,0.208457133011
6745,11,0.660114283489
*EQUATION
5
7397,11,-1.000000000000
6745,11,0.012800001280
6850,11,0.147200006720
6853,11,0.772799989280
6748,11,0.067200002720
*EQUATION
5
7398,11,-1.000000000000
6745,11,0.121600007360
6850,11,0.038400000640
6853,11,0.201599991360
6748,11,0.638400000640
*EQUATION
5
7403,11,-1.000000000000
6748,11,0.015085713754
6853,11,0.173485698746
6856,11,0.746514297254
6751,11,0.064914290246
*EQUATION
5
7404,11,-1.000000000000
6748,11,0.143314275009
6853,11,0.045257137491
6856,11,0.194742854509
6751,11,0.616685732991
*EQUATION
5
7409,11,-1.000000000000
6751,11,0.017371427829
6856,11,0.199771409171
6859,11,0.720228586829
6754,11,0.062628576171
*EQUATION
5
7410,11,-1.000000000000
6751,11,0.165028557857
6856,11,0.052114279143
6859,11,0.187885712857
6754,11,0.594971450143
*EQUATION
5
7415,11,-1.000000000000
6754,11,0.019657141903
6859,11,0.226057119597
6862,11,0.693942876403
6757,11,0.060342862097
*EQUATION
5
7416,11,-1.000000000000
6754,11,0.186742840706
6859,11,0.058971420794
6862,11,0.181028571206
6757,11,0.573257167294
*EQUATION
5
7421,11,-1.000000000000
6757,11,0.021942859857
6862,11,0.252342874643
6865,11,0.667657121357
6760,11,0.058057144143
*EQUATION
5
7422,11,-1.000000000000
6757,11,0.208457160414
6862,11,0.065828574086
6865,11,0.174171417914
6760,11,0.551542847586
*EQUATION
5
7427,11,-1.000000000000
6760,11,0.024228573931
6865,11,0.278628585069
6868,11,0.641371410931
6763,11,0.055771430069
*EQUATION
5
7428,11,-1.000000000000
6760,11,0.230171443263
6865,11,0.072685715737
6868,11,0.167314276263
6763,11,0.529828564737
*EQUATION
5
7433,11,-1.000000000000
6763,11,0.026514288006
6868,11,0.304914295494
6871,11,0.615085700506
6766,11,0.053485715994
*EQUATION
5
7434,11,-1.000000000000
6763,11,0.251885726111
6868,11,0.079542857389
6871,11,0.160457134611
6766,11,0.508114281889
*EQUATION
5
7439,11,-1.000000000000
6766,11,0.028800002080
6871,11,0.331200005920
6874,11,0.588799990080
6769,11,0.051200001920
*EQUATION
5
7440,11,-1.000000000000
6766,11,0.273600008960
6871,11,0.086399999040
6874,11,0.153599992960
6769,11,0.486399999040
*EQUATION
5
7445,11,-1.000000000000
6832,11,0.384000003200
6937,11,0.576000004800
6940,11,0.023999995200
6835,11,0.015999996800
*EQUATION
5
7446,11,-1.000000000000
6835,11,0.395428565000
6940,11,0.593142847500
6943,11,0.006857152500
6838,11,0.004571435000
*EQUATION
5
7449,11,-1.000000000000
6835,11,0.006857134800
6940,11,0.010285702200
6943,11,0.589714297800
6838,11,0.393142865200
*EQUATION
5
7452,11,-1.000000000000
6838,11,0.018285704600
6943,11,0.027428556900
6946,11,0.572571443100
6841,11,0.381714295400
*EQUATION
5
7455,11,-1.000000000000
6841,11,0.029714293800
6946,11,0.044571440700
6949,11,0.555428559300
6844,11,0.370285706200
*EQUATION
5
7458,11,-1.000000000000
6844,11,0.041142863600
6949,11,0.061714295400
6952,11,0.538285704600
6847,11,0.358857136400
*EQUATION
5
7461,11,-1.000000000000
6847,11,0.052571433400
6952,11,0.078857150100
6955,11,0.521142849900
6850,11,0.347428566600
*EQUATION
5
7464,11,-1.000000000000
6850,11,0.064000003200
6955,11,0.096000004800
6958,11,0.503999995200
6853,11,0.335999996800
*EQUATION
5
7467,11,-1.000000000000
6853,11,0.075428565000
6958,11,0.113142847500
6961,11,0.486857152500
6856,11,0.324571435000
*EQUATION
5
7470,11,-1.000000000000
6856,11,0.086857134800
6961,11,0.130285702200
6964,11,0.469714297800
6859,11,0.313142865200
*EQUATION
5
7473,11,-1.000000000000
6859,11,0.098285704600
6964,11,0.147428556900
6967,11,0.452571443100
6862,11,0.301714295400
*EQUATION
5
7476,11,-1.000000000000
6862,11,0.109714293800
6967,11,0.164571440700
6970,11,0.435428559300
6865,11,0.290285706200
*EQUATION
5
7479,11,-1.000000000000
6865,11,0.121142863600
6970,11,0.181714295400
6973,11,0.418285704600
6868,11,0.278857136400
*EQUATION
5
7482,11,-1.000000000000
6868,11,0.132571433400
6973,11,0.198857150100
6976,11,0.401142849900
6871,11,0.267428566600
*EQUATION
5
7485,11,-1.000000000000
6871,11,0.144000003200
6976,11,0.216000004800
6979,11,0.383999995200
6874,11,0.255999996800
*EQUATION
5
7494,11,-1.000000000000
6772,11,0.025600000960
6877,11,0.294399995040
6880,11,0.625600000960
6775,11,0.054400003040
*EQUATION
5
7495,11,-1.000000000000
6772,11,0.243199999520
6877,11,0.076799996480
6880,11,0.163199995520
6775,11,0.516800008480
*EQUATION
5
7496,11,-1.000000000000
6775,11,0.027885715034
6880,11,0.320685705466
6883,11,0.599314290534
6778,11,0.052114288966
*EQUATION
5
7497,11,-1.000000000000
6775,11,0.264914282369
6880,11,0.083657138131
6883,11,0.156342853869
6778,11,0.495085725631
*EQUATION
5
7502,11,-1.000000000000
6778,11,0.030171429109
6883,11,0.346971415891
6886,11,0.573028580109
6781,11,0.049828574891
*EQUATION
5
7503,11,-1.000000000000
6778,11,0.286628565217
6883,11,0.090514279783
6886,11,0.149485712217
6781,11,0.473371442783
*EQUATION
5
7508,11,-1.000000000000
6781,11,0.032457145583
6886,11,0.373257153917
6889,11,0.546742842083
6784,11,0.047542858417
*EQUATION
5
7509,11,-1.000000000000
6781,11,0.308342870866
6886,11,0.097371428634
6889,11,0.142628563366
6784,11,0.451657137134
*EQUATION
5
7514,11,-1.000000000000
6784,11,0.034742857137
6889,11,0.399542835363
6892,11,0.520457160637
6787,11,0.045257146863
*EQUATION
5
7515,11,-1.000000000000
6784,11,0.330057129774
6889,11,0.104228562726
6892,11,0.135771429274
6787,11,0.429942878226
*EQUATION
5
7520,11,-1.000000000000
6787,11,0.037028575211
6892,11,0.425828591789
6895,11,0.494171404211
6790,11,0.042971428789
*EQUATION
5
7521,11,-1.000000000000
6787,11,0.351771450623
6892,11,0.111085716377
6895,11,0.128914275623
6790,11,0.408228557377
*EQUATION
5
7526,11,-1.000000000000
6790,11,0.039314287686
6895,11,0.452114283814
6898,11,0.467885712186
6793,11,0.040685716314
*EQUATION
5
7527,11,-1.000000000000
6790,11,0.373485718271
6895,11,0.117942853229
6898,11,0.122057138771
6793,11,0.386514289729
*EQUATION
5
7532,11,-1.000000000000
6793,11,0.041600001760
6898,11,0.478399994240
6901,11,0.441600001760
6796,11,0.038400002240
*EQUATION
5
7533,11,-1.000000000000
6793,11,0.395200001120
6898,11,0.124799994880
6901,11,0.115199997120
6796,11,0.364800006880
*EQUATION
5
7538,11,-1.000000000000
6796,11,0.043885715834
6901,11,0.504685704666
6904,11,0.415314291334
6799,11,0.036114288166
*EQUATION
5
7539,11,-1.000000000000
6796,11,0.416914283969
6901,11,0.131657136531
6904,11,0.108342855469
6799,11,0.343085724031
*EQUATION
5
7544,11,-1.000000000000
6799,11,0.046171429909
6904,11,0.530971415091
6907,11,0.389028580909
6802,11,0.033828574091
*EQUATION
5
7545,11,-1.000000000000
6799,11,0.438628566817
6904,11,0.138514278183
6907,11,0.101485713817
6802,11,0.321371441183
*EQUATION
5
7550,11,-1.000000000000
6802,11,0.048457146383
6907,11,0.557257153117
6910,11,0.362742842883
6805,11,0.031542857617
*EQUATION
5
7551,11,-1.000000000000
6802,11,0.460342872466
6907,11,0.145371427034
6910,11,0.094628564966
6805,11,0.299657135534
*EQUATION
5
7556,11,-1.000000000000
6805,11,0.050742857937
6910,11,0.583542834563
6913,11,0.336457161437
6808,11,0.029257146063
*EQUATION
5
7557,11,-1.000000000000
6805,11,0.482057131374
6910,11,0.152228561126
6913,11,0.087771430874
6808,11,0.277942876626
*EQUATION
5
7562,11,-1.000000000000
6808,11,0.053028576011
6913,11,0.609828590989
6916,11,0.310171405011
6811,11,0.026971427989
*EQUATION
5
7563,11,-1.000000000000
6808,11,0.503771452223
6913,11,0.159085714777
6916,11,0.080914277223
6811,11,0.256228555777
*EQUATION
5
7568,11,-1.000000000000
6811,11,0.055314288486
6916,11,0.636114283014
6919,11,0.283885712986
6814,11,0.024685715514
*EQUATION
5
7569,11,-1.000000000000
6811,11,0.525485719871
6916,11,0.165942851629
6919,11,0.074057140371
6814,11,0.234514288129
*EQUATION
5
7574,11,-1.000000000000
6814,11,0.057600002560
6919,11,0.662399993440
6922,11,0.257600002560
6817,11,0.022400001440
*EQUATION
5
7575,11,-1.000000000000
6814,11,0.547200002720
6919,11,0.172799993280
6922,11,0.067199998720
6817,11,0.212800005280
*EQUATION
5
7580,11,-1.000000000000
6877,11,0.127999998400
6982,11,0.191999997600
6985,11,0.408000002400
6880,11,0.272000001600
*EQUATION
5
7581,11,-1.000000000000
6880,11,0.139428568200
6985,11,0.209142852300
6988,11,0.390857147700
6883,11,0.260571431800
*EQUATION
5
7584,11,-1.000000000000
6883,11,0.150857138000
6988,11,0.226285707000
6991,11,0.373714293000
6886,11,0.249142862000
*EQUATION
5
7587,11,-1.000000000000
6886,11,0.162285719800
6991,11,0.243428579700
6994,11,0.356571420300
6889,11,0.237714280200
*EQUATION
5
7590,11,-1.000000000000
6889,11,0.173714277000
6994,11,0.260571415500
6997,11,0.339428584500
6892,11,0.226285723000
*EQUATION
5
7593,11,-1.000000000000
6892,11,0.185142866800
6997,11,0.277714300200
7000,11,0.322285699800
6895,11,0.214857133200
*EQUATION
5
7596,11,-1.000000000000
6895,11,0.196571428600
7000,11,0.294857142900
7003,11,0.305142857100
6898,11,0.203428571400
*EQUATION
5
7599,11,-1.000000000000
6898,11,0.207999998400
7003,11,0.311999997600
7006,11,0.288000002400
6901,11,0.192000001600
*EQUATION
5
7602,11,-1.000000000000
6901,11,0.219428568200
7006,11,0.329142852300
7009,11,0.270857147700
6904,11,0.180571431800
*EQUATION
5
7605,11,-1.000000000000
6904,11,0.230857138000
7009,11,0.346285707000
7012,11,0.253714293000
6907,11,0.169142862000
*EQUATION
5
7608,11,-1.000000000000
6907,11,0.242285719800
7012,11,0.363428579700
7015,11,0.236571420300
6910,11,0.157714280200
*EQUATION
5
7611,11,-1.000000000000
6910,11,0.253714277000
7015,11,0.380571415500
7018,11,0.219428584500
6913,11,0.146285723000
*EQUATION
5
7614,11,-1.000000000000
6913,11,0.265142866800
7018,11,0.397714300200
7021,11,0.202285699800
6916,11,0.134857133200
*EQUATION
5
7617,11,-1.000000000000
6916,11,0.276571428600
7021,11,0.414857142900
7024,11,0.185142857100
6919,11,0.123428571400
*EQUATION
5
7620,11,-1.000000000000
6919,11,0.287999998400
7024,11,0.431999997600
7027,11,0.168000002400
6922,11,0.112000001600
**include, input=depu123.equ
** areampc based on set depu indu
*EQUATION
5
7351,11,-1.000000000000
409,11,0.023999995200
514,11,0.015999996800
517,11,0.384000003200
412,11,0.576000004800
*EQUATION
5
7352,11,-1.000000000000
514,11,0.036799992480
619,11,0.003199999520
622,11,0.076800004480
517,11,0.883200003520
*EQUATION
5
7355,11,-1.000000000000
406,11,0.006857152500
511,11,0.004571435000
514,11,0.395428565000
409,11,0.593142847500
*EQUATION
5
7356,11,-1.000000000000
511,11,0.010514300454
616,11,0.000914287046
619,11,0.079085716954
514,11,0.909485695546
*EQUATION
5
7363,11,-1.000000000000
406,11,0.589714297800
511,11,0.393142865200
514,11,0.006857134800
409,11,0.010285702200
*EQUATION
5
7364,11,-1.000000000000
511,11,0.904228586029
616,11,0.078628576971
619,11,0.001371427029
514,11,0.015771409971
*EQUATION
5
7369,11,-1.000000000000
403,11,0.572571443100
508,11,0.381714295400
511,11,0.018285704600
406,11,0.027428556900
*EQUATION
5
7370,11,-1.000000000000
508,11,0.877942875603
613,11,0.076342862897
616,11,0.003657141103
511,11,0.042057120397
*EQUATION
5
7375,11,-1.000000000000
400,11,0.555428559300
505,11,0.370285706200
508,11,0.029714293800
403,11,0.044571440700
*EQUATION
5
7376,11,-1.000000000000
505,11,0.851657120557
610,11,0.074057144943
613,11,0.005942859057
508,11,0.068342875443
*EQUATION
5
7381,11,-1.000000000000
397,11,0.538285704600
502,11,0.358857136400
505,11,0.041142863600
400,11,0.061714295400
*EQUATION
5
7382,11,-1.000000000000
502,11,0.825371410131
607,11,0.071771430869
610,11,0.008228573131
505,11,0.094628585869
*EQUATION
5
7387,11,-1.000000000000
394,11,0.521142849900
499,11,0.347428566600
502,11,0.052571433400
397,11,0.078857150100
*EQUATION
5
7388,11,-1.000000000000
499,11,0.799085699706
604,11,0.069485716794
607,11,0.010514287206
502,11,0.120914296294
*EQUATION
5
7393,11,-1.000000000000
391,11,0.503999995200
496,11,0.335999996800
499,11,0.064000003200
394,11,0.096000004800
*EQUATION
5
7394,11,-1.000000000000
496,11,0.772799989280
601,11,0.067200002720
604,11,0.012800001280
499,11,0.147200006720
*EQUATION
5
7399,11,-1.000000000000
388,11,0.486857152500
493,11,0.324571435000
496,11,0.075428565000
391,11,0.113142847500
*EQUATION
5
7400,11,-1.000000000000
493,11,0.746514297254
598,11,0.064914290246
601,11,0.015085713754
496,11,0.173485698746
*EQUATION
5
7405,11,-1.000000000000
385,11,0.469714297800
490,11,0.313142865200
493,11,0.086857134800
388,11,0.130285702200
*EQUATION
5
7406,11,-1.000000000000
490,11,0.720228586829
595,11,0.062628576171
598,11,0.017371427829
493,11,0.199771409171
*EQUATION
5
7411,11,-1.000000000000
382,11,0.452571443100
487,11,0.301714295400
490,11,0.098285704600
385,11,0.147428556900
*EQUATION
5
7412,11,-1.000000000000
487,11,0.693942876403
592,11,0.060342862097
595,11,0.019657141903
490,11,0.226057119597
*EQUATION
5
7417,11,-1.000000000000
379,11,0.435428559300
484,11,0.290285706200
487,11,0.109714293800
382,11,0.164571440700
*EQUATION
5
7418,11,-1.000000000000
484,11,0.667657121357
589,11,0.058057144143
592,11,0.021942859857
487,11,0.252342874643
*EQUATION
5
7423,11,-1.000000000000
376,11,0.418285704600
481,11,0.278857136400
484,11,0.121142863600
379,11,0.181714295400
*EQUATION
5
7424,11,-1.000000000000
481,11,0.641371410931
586,11,0.055771430069
589,11,0.024228573931
484,11,0.278628585069
*EQUATION
5
7429,11,-1.000000000000
373,11,0.401142849900
478,11,0.267428566600
481,11,0.132571433400
376,11,0.198857150100
*EQUATION
5
7430,11,-1.000000000000
478,11,0.615085700506
583,11,0.053485715994
586,11,0.026514288006
481,11,0.304914295494
*EQUATION
5
7435,11,-1.000000000000
370,11,0.383999995200
475,11,0.255999996800
478,11,0.144000003200
373,11,0.216000004800
*EQUATION
5
7436,11,-1.000000000000
475,11,0.588799990080
580,11,0.051200001920
583,11,0.028800002080
478,11,0.331200005920
*EQUATION
5
7441,11,-1.000000000000
514,11,0.009599997760
619,11,0.030399994240
622,11,0.729600013760
517,11,0.230399994240
*EQUATION
5
7443,11,-1.000000000000
511,11,0.002742860909
616,11,0.008685726591
619,11,0.751314281409
514,11,0.237257131091
*EQUATION
5
7447,11,-1.000000000000
511,11,0.235885711257
616,11,0.746971451743
619,11,0.013028556257
514,11,0.004114280743
*EQUATION
5
7450,11,-1.000000000000
508,11,0.229028569606
613,11,0.725257168894
616,11,0.034742839106
511,11,0.010971422394
*EQUATION
5
7453,11,-1.000000000000
505,11,0.222171416314
610,11,0.703542849186
613,11,0.056457158814
508,11,0.017828575686
*EQUATION
5
7456,11,-1.000000000000
502,11,0.215314274663
607,11,0.681828566337
610,11,0.078171441663
505,11,0.024685717337
*EQUATION
5
7459,11,-1.000000000000
499,11,0.208457133011
604,11,0.660114283489
607,11,0.099885724511
502,11,0.031542858989
*EQUATION
5
7462,11,-1.000000000000
496,11,0.201599991360
601,11,0.638400000640
604,11,0.121600007360
499,11,0.038400000640
*EQUATION
5
7465,11,-1.000000000000
493,11,0.194742854509
598,11,0.616685732991
601,11,0.143314275009
496,11,0.045257137491
*EQUATION
5
7468,11,-1.000000000000
490,11,0.187885712857
595,11,0.594971450143
598,11,0.165028557857
493,11,0.052114279143
*EQUATION
5
7471,11,-1.000000000000
487,11,0.181028571206
592,11,0.573257167294
595,11,0.186742840706
490,11,0.058971420794
*EQUATION
5
7474,11,-1.000000000000
484,11,0.174171417914
589,11,0.551542847586
592,11,0.208457160414
487,11,0.065828574086
*EQUATION
5
7477,11,-1.000000000000
481,11,0.167314276263
586,11,0.529828564737
589,11,0.230171443263
484,11,0.072685715737
*EQUATION
5
7480,11,-1.000000000000
478,11,0.160457134611
583,11,0.508114281889
586,11,0.251885726111
481,11,0.079542857389
*EQUATION
5
7483,11,-1.000000000000
475,11,0.153599992960
580,11,0.486399999040
583,11,0.273600008960
478,11,0.086399999040
*EQUATION
5
7486,11,-1.000000000000
364,11,0.408000002400
469,11,0.272000001600
472,11,0.127999998400
367,11,0.191999997600
*EQUATION
5
7487,11,-1.000000000000
469,11,0.625600000960
574,11,0.054400003040
577,11,0.025600000960
472,11,0.294399995040
*EQUATION
5
7490,11,-1.000000000000
361,11,0.390857147700
466,11,0.260571431800
469,11,0.139428568200
364,11,0.209142852300
*EQUATION
5
7491,11,-1.000000000000
466,11,0.599314290534
571,11,0.052114288966
574,11,0.027885715034
469,11,0.320685705466
*EQUATION
5
7498,11,-1.000000000000
358,11,0.373714293000
463,11,0.249142862000
466,11,0.150857138000
361,11,0.226285707000
*EQUATION
5
7499,11,-1.000000000000
463,11,0.573028580109
568,11,0.049828574891
571,11,0.030171429109
466,11,0.346971415891
*EQUATION
5
7504,11,-1.000000000000
355,11,0.356571420300
460,11,0.237714280200
463,11,0.162285719800
358,11,0.243428579700
*EQUATION
5
7505,11,-1.000000000000
460,11,0.546742842083
565,11,0.047542858417
568,11,0.032457145583
463,11,0.373257153917
*EQUATION
5
7510,11,-1.000000000000
352,11,0.339428584500
457,11,0.226285723000
460,11,0.173714277000
355,11,0.260571415500
*EQUATION
5
7511,11,-1.000000000000
457,11,0.520457160637
562,11,0.045257146863
565,11,0.034742857137
460,11,0.399542835363
*EQUATION
5
7516,11,-1.000000000000
349,11,0.322285699800
454,11,0.214857133200
457,11,0.185142866800
352,11,0.277714300200
*EQUATION
5
7517,11,-1.000000000000
454,11,0.494171404211
559,11,0.042971428789
562,11,0.037028575211
457,11,0.425828591789
*EQUATION
5
7522,11,-1.000000000000
346,11,0.305142857100
451,11,0.203428571400
454,11,0.196571428600
349,11,0.294857142900
*EQUATION
5
7523,11,-1.000000000000
451,11,0.467885712186
556,11,0.040685716314
559,11,0.039314287686
454,11,0.452114283814
*EQUATION
5
7528,11,-1.000000000000
343,11,0.288000002400
448,11,0.192000001600
451,11,0.207999998400
346,11,0.311999997600
*EQUATION
5
7529,11,-1.000000000000
448,11,0.441600001760
553,11,0.038400002240
556,11,0.041600001760
451,11,0.478399994240
*EQUATION
5
7534,11,-1.000000000000
340,11,0.270857147700
445,11,0.180571431800
448,11,0.219428568200
343,11,0.329142852300
*EQUATION
5
7535,11,-1.000000000000
445,11,0.415314291334
550,11,0.036114288166
553,11,0.043885715834
448,11,0.504685704666
*EQUATION
5
7540,11,-1.000000000000
337,11,0.253714293000
442,11,0.169142862000
445,11,0.230857138000
340,11,0.346285707000
*EQUATION
5
7541,11,-1.000000000000
442,11,0.389028580909
547,11,0.033828574091
550,11,0.046171429909
445,11,0.530971415091
*EQUATION
5
7546,11,-1.000000000000
334,11,0.236571420300
439,11,0.157714280200
442,11,0.242285719800
337,11,0.363428579700
*EQUATION
5
7547,11,-1.000000000000
439,11,0.362742842883
544,11,0.031542857617
547,11,0.048457146383
442,11,0.557257153117
*EQUATION
5
7552,11,-1.000000000000
331,11,0.219428584500
436,11,0.146285723000
439,11,0.253714277000
334,11,0.380571415500
*EQUATION
5
7553,11,-1.000000000000
436,11,0.336457161437
541,11,0.029257146063
544,11,0.050742857937
439,11,0.583542834563
*EQUATION
5
7558,11,-1.000000000000
328,11,0.202285699800
433,11,0.134857133200
436,11,0.265142866800
331,11,0.397714300200
*EQUATION
5
7559,11,-1.000000000000
433,11,0.310171405011
538,11,0.026971427989
541,11,0.053028576011
436,11,0.609828590989
*EQUATION
5
7564,11,-1.000000000000
325,11,0.185142857100
430,11,0.123428571400
433,11,0.276571428600
328,11,0.414857142900
*EQUATION
5
7565,11,-1.000000000000
430,11,0.283885712986
535,11,0.024685715514
538,11,0.055314288486
433,11,0.636114283014
*EQUATION
5
7570,11,-1.000000000000
322,11,0.168000002400
427,11,0.112000001600
430,11,0.287999998400
325,11,0.431999997600
*EQUATION
5
7571,11,-1.000000000000
427,11,0.257600002560
532,11,0.022400001440
535,11,0.057600002560
430,11,0.662399993440
*EQUATION
5
7576,11,-1.000000000000
469,11,0.163199995520
574,11,0.516800008480
577,11,0.243199999520
472,11,0.076799996480
*EQUATION
5
7578,11,-1.000000000000
466,11,0.156342853869
571,11,0.495085725631
574,11,0.264914282369
469,11,0.083657138131
*EQUATION
5
7582,11,-1.000000000000
463,11,0.149485712217
568,11,0.473371442783
571,11,0.286628565217
466,11,0.090514279783
*EQUATION
5
7585,11,-1.000000000000
460,11,0.142628563366
565,11,0.451657137134
568,11,0.308342870866
463,11,0.097371428634
*EQUATION
5
7588,11,-1.000000000000
457,11,0.135771429274
562,11,0.429942878226
565,11,0.330057129774
460,11,0.104228562726
*EQUATION
5
7591,11,-1.000000000000
454,11,0.128914275623
559,11,0.408228557377
562,11,0.351771450623
457,11,0.111085716377
*EQUATION
5
7594,11,-1.000000000000
451,11,0.122057138771
556,11,0.386514289729
559,11,0.373485718271
454,11,0.117942853229
*EQUATION
5
7597,11,-1.000000000000
448,11,0.115199997120
553,11,0.364800006880
556,11,0.395200001120
451,11,0.124799994880
*EQUATION
5
7600,11,-1.000000000000
445,11,0.108342855469
550,11,0.343085724031
553,11,0.416914283969
448,11,0.131657136531
*EQUATION
5
7603,11,-1.000000000000
442,11,0.101485713817
547,11,0.321371441183
550,11,0.438628566817
445,11,0.138514278183
*EQUATION
5
7606,11,-1.000000000000
439,11,0.094628564966
544,11,0.299657135534
547,11,0.460342872466
442,11,0.145371427034
*EQUATION
5
7609,11,-1.000000000000
436,11,0.087771430874
541,11,0.277942876626
544,11,0.482057131374
439,11,0.152228561126
*EQUATION
5
7612,11,-1.000000000000
433,11,0.080914277223
538,11,0.256228555777
541,11,0.503771452223
436,11,0.159085714777
*EQUATION
5
7615,11,-1.000000000000
430,11,0.074057140371
535,11,0.234514288129
538,11,0.525485719871
433,11,0.165942851629
*EQUATION
5
7618,11,-1.000000000000
427,11,0.067199998720
532,11,0.212800005280
535,11,0.547200002720
430,11,0.172799993280
** material definition
*material, name=steel
**elastic
**210000,0.333333333,0
*density
7.85e-9
***expansion
**12e-6
*conductivity
50.,0
*specific heat
5e8,0
*initial conditions, type=temperature
Nall,0
*solid section, elset=Eall, material=steel
*step
*heat transfer, direct
0.02,2
*amplitude, name=excite
0,0, 0.02,0, 0.04,1, 0.2,1
0.22,0, 2,0
*dflux,amplitude=excite
** DFlux based on excite
2314, S5, 5.000000e+01
2382, S5, 5.000000e+01
2316, S5, 5.000000e+01
2384, S5, 5.000000e+01
2318, S5, 5.000000e+01
2386, S5, 5.000000e+01
2320, S5, 5.000000e+01
2388, S5, 5.000000e+01
2322, S5, 5.000000e+01
2390, S5, 5.000000e+01
2324, S5, 5.000000e+01
2392, S5, 5.000000e+01
2326, S5, 5.000000e+01
2394, S5, 5.000000e+01
2328, S5, 5.000000e+01
2396, S5, 5.000000e+01
2330, S5, 5.000000e+01
2398, S5, 5.000000e+01
2332, S5, 5.000000e+01
2400, S5, 5.000000e+01
** ... 1136 like lines cut
*node file
NT
*end step
