**Tensile Test
**Tensile test of a wire of 1 mm diameter 
**made of 1.4301 stainless steel. 
**This steel has a high yield strength 
**but nearly no work hardening, 
**thus the uniform strain is very low and necking
**occures early and very localized.
**http://github.com/mkraska/CalculiX-Examples/tree/master/Drahtbiegen/Zug
**Created by Martin Kraska, 
**Brandenburg University of Applied Sciences
**<img src="tens.png">

*NODE, NSET=Nall
       1,5.000000000000e-01,0.000000000000e+00,0.000000000000e+00
       2,5.000000000000e-01,3.737975538431e-02,0.000000000000e+00
       3,4.000000000000e-01,3.737975538431e-02,0.000000000000e+00
       4,4.000000000000e-01,0.000000000000e+00,0.000000000000e+00
       5,5.000000000000e-01,1.868987769215e-02,0.000000000000e+00
       6,4.500000000000e-01,3.737975538431e-02,0.000000000000e+00
       7,4.000000000000e-01,1.868987769215e-02,0.000000000000e+00
       8,4.500000000000e-01,0.000000000000e+00,0.000000000000e+00
       9,5.000000000000e-01,7.693556994160e-02,0.000000000000e+00
      10,4.000000000000e-01,7.693556994160e-02,0.000000000000e+00
      11,5.000000000000e-01,5.715766266295e-02,0.000000000000e+00
      12,4.500000000000e-01,7.693556994160e-02,0.000000000000e+00
      13,4.000000000000e-01,5.715766266295e-02,0.000000000000e+00
      14,5.000000000000e-01,1.187941227653e-01,0.000000000000e+00
      15,4.000000000000e-01,1.187941227653e-01,0.000000000000e+00
      16,5.000000000000e-01,9.786484635344e-02,0.000000000000e+00
      17,4.500000000000e-01,1.187941227653e-01,0.000000000000e+00
      18,4.000000000000e-01,9.786484635344e-02,0.000000000000e+00
      19,5.000000000000e-01,1.630894675611e-01,0.000000000000e+00
      20,4.000000000000e-01,1.630894675611e-01,0.000000000000e+00
** ... 416 like lines cut
*ELEMENT, TYPE=CAX8R, ELSET=Eall
     1,      1,      2,      3,      4,      5,      6,      7,      8
     2,      2,      9,     10,      3,     11,     12,     13,      6
     3,      9,     14,     15,     10,     16,     17,     18,     12
     4,     14,     19,     20,     15,     21,     22,     23,     17
     5,     19,     24,     25,     20,     26,     27,     28,     22
     6,     24,     29,     30,     25,     31,     32,     33,     27
     7,     29,     34,     35,     30,     36,     37,     38,     32
     8,     34,     39,     40,     35,     41,     42,     43,     37
     9,     39,     44,     45,     40,     46,     47,     48,     42
    10,     44,     49,     50,     45,     51,     52,     53,     47
    11,     49,     54,     55,     50,     56,     57,     58,     52
    12,     54,     59,     60,     55,     61,     62,     63,     57
    13,     59,     64,     65,     60,     66,     67,     68,     62
    14,     64,     69,     70,     65,     71,     72,     73,     67
    15,     69,     74,     75,     70,     76,     77,     78,     72
    16,     74,     79,     80,     75,     81,     82,     83,     77
    17,     79,     84,     85,     80,     86,     87,     88,     82
    18,     84,     89,     90,     85,     91,     92,     93,     87
    19,     89,     94,     95,     90,     96,     97,     98,     92
    20,     94,     99,    100,     95,    101,    102,    103,     97
** ... 105 like lines cut
** Names based on bottom
*NSET,NSET=Nbottom 
1, 
4, 
8, 
130, 
133, 
207, 
210, 
284, 
287, 
361, 
364, 
** Names based on top
*NSET,NSET=Ntop 
124, 
125, 
127, 
203, 
204, 
280, 
281, 
357, 
358, 
434, 
435, 
** Names based on sym
*NSET,NSET=Nsym 
360, 
361, 
363, 
365, 
367, 
368, 
370, 
371, 
373, 
374, 
376, 
377, 
379, 
380, 
382, 
383, 
385, 
386, 
388, 
389, 
** ... 31 like lines cut
** symmetry at bottom
*boundary
Nbottom, 2
Ntop, 1,2
Nsym, 1
** material definition
*material, name=steel_4301
*elastic
210000,0.333333333,0
*density
7.85e-9
*plastic
2000, 0, 0
3000, 5, 0
*solid section, elset=Eall, material=steel_4301
*time points, name=t10, generate
0,1,0.1
*STEP, NLGEOM,
*STATIC
0.001,1,0.0000001
** displacement control at top
*boundary
Ntop, 2,2,0.3
*el file, output=2D,time points=t10
S,PEEQ
*node file, output=2D
U
*node print, totals=only, nset=Ntop
RF
*end step
